MODEL 1
REMARK VINA RESULT:   -11.921      0.000      0.000
REMARK INTER + INTRA:         -13.957
REMARK INTER:                 -14.708
REMARK INTRA:                   0.752
REMARK UNBOUND:                 0.752
REMARK  4 active torsions:
REMARK  status: ('A' for Active; 'I' for Inactive)
REMARK    1  A    between atoms: C_4  and  C_5 
REMARK       I    between atoms: C_5  and  N_7 
REMARK       I    between atoms: N_8  and  C_9 
REMARK    2  A    between atoms: C_9  and  C_11 
REMARK    3  A    between atoms: C_15  and  S_17 
REMARK    4  A    between atoms: S_17  and  N_20 
ROOT
ATOM      1  C   UNL d   1     -47.003  12.238  17.076  0.00  0.00     0.271 C 
ATOM      2  O   UNL d   1     -47.297  12.760  16.026  0.00  0.00    -0.266 OA
ATOM      3  N   UNL d   1     -45.697  12.168  17.471  0.00  0.00    -0.263 N 
ATOM      4  N   UNL d   1     -44.824  12.633  16.765  0.00  0.00    -0.263 N 
ATOM      5  C   UNL d   1     -43.518  12.563  17.160  0.00  0.00     0.270 C 
ATOM      6  O   UNL d   1     -43.224  12.041  18.210  0.00  0.00    -0.266 OA
ATOM      7  H   UNL d   1     -45.461  11.734  18.339  0.00  0.00     0.190 HD
ATOM      8  H   UNL d   1     -45.064  13.067  15.897  0.00  0.00     0.190 HD
ENDROOT
BRANCH   5   9
ATOM      9  C   UNL d   1     -42.466  13.145  16.271  0.00  0.00     0.035 A 
ATOM     10  C   UNL d   1     -42.747  13.388  14.914  0.00  0.00     0.042 A 
ATOM     11  C   UNL d   1     -41.755  13.935  14.082  0.00  0.00     0.080 A 
ATOM     12  C   UNL d   1     -40.485  14.240  14.601  0.00  0.00     0.025 A 
ATOM     13  C   UNL d   1     -40.205  13.996  15.956  0.00  0.00     0.003 A 
ATOM     14  C   UNL d   1     -41.195  13.450  16.792  0.00  0.00     0.017 A 
BRANCH  11  15
ATOM     15  S   UNL d   1     -42.100  14.233  12.416  0.00  0.00     0.261 S 
ATOM     16  O   UNL d   1     -42.440  12.969  11.786  0.00  0.00    -0.200 OA
ATOM     17  O   UNL d   1     -40.946  14.878  11.819  0.00  0.00    -0.200 OA
BRANCH  15  18
ATOM     18  N   UNL d   1     -43.447  15.293  12.119  0.00  0.00    -0.303 N 
ATOM     19  C   UNL d   1     -43.185  16.737  12.116  0.00  0.00     0.161 C 
ATOM     20  C   UNL d   1     -44.378  17.529  11.548  0.00  0.00     0.188 C 
ATOM     21  O   UNL d   1     -45.557  17.193  12.264  0.00  0.00    -0.388 OA
ATOM     22  C   UNL d   1     -45.878  15.810  12.215  0.00  0.00     0.188 C 
ATOM     23  C   UNL d   1     -44.713  14.986  12.794  0.00  0.00     0.161 C 
ENDBRANCH  15  18
ENDBRANCH  11  15
ENDBRANCH   5   9
BRANCH   1  24
ATOM     24  C   UNL d   1     -47.892  11.611  18.082  0.00  0.00     0.048 A 
ATOM     25  C   UNL d   1     -49.293  11.810  17.986  0.00  0.00     0.044 A 
ATOM     26  C   UNL d   1     -50.144  11.209  18.943  0.00  0.00     0.032 A 
ATOM     27  C   UNL d   1     -51.599  11.412  18.849  0.00  0.00     0.070 C 
ATOM     28  N   UNL d   1     -49.640  10.439  19.969  0.00  0.00    -0.253 NA
ATOM     29  C   UNL d   1     -48.279  10.228  20.086  0.00  0.00     0.068 A 
ATOM     30  C   UNL d   1     -47.365  10.811  19.142  0.00  0.00     0.008 A 
ATOM     31  C   UNL d   1     -47.772   9.433  21.144  0.00  0.00     0.032 A 
ATOM     32  C   UNL d   1     -45.969  10.584  19.282  0.00  0.00     0.015 A 
ATOM     33  C   UNL d   1     -45.484   9.788  20.343  0.00  0.00     0.001 A 
ATOM     34  C   UNL d   1     -46.380   9.214  21.271  0.00  0.00     0.002 A 
ENDBRANCH   1  24
TORSDOF 4
ENDMDL
MODEL 2
REMARK VINA RESULT:   -10.392      1.831      3.823
REMARK INTER + INTRA:         -12.071
REMARK INTER:                 -11.702
REMARK INTRA:                  -0.369
REMARK UNBOUND:                 0.752
REMARK  4 active torsions:
REMARK  status: ('A' for Active; 'I' for Inactive)
REMARK    1  A    between atoms: C_4  and  C_5 
REMARK       I    between atoms: C_5  and  N_7 
REMARK       I    between atoms: N_8  and  C_9 
REMARK    2  A    between atoms: C_9  and  C_11 
REMARK    3  A    between atoms: C_15  and  S_17 
REMARK    4  A    between atoms: S_17  and  N_20 
ROOT
ATOM      1  C   UNL d   1     -46.970  12.498  16.925  0.00  0.00     0.271 C 
ATOM      2  O   UNL d   1     -45.933  12.059  16.486  0.00  0.00    -0.266 OA
ATOM      3  N   UNL d   1     -47.410  13.736  16.550  0.00  0.00    -0.263 N 
ATOM      4  N   UNL d   1     -46.758  14.400  15.768  0.00  0.00    -0.263 N 
ATOM      5  C   UNL d   1     -47.198  15.638  15.393  0.00  0.00     0.270 C 
ATOM      6  O   UNL d   1     -48.236  16.077  15.833  0.00  0.00    -0.266 OA
ATOM      7  H   UNL d   1     -48.267  14.094  16.917  0.00  0.00     0.190 HD
ATOM      8  H   UNL d   1     -45.901  14.039  15.402  0.00  0.00     0.190 HD
ENDROOT
BRANCH   5   9
ATOM      9  C   UNL d   1     -46.375  16.432  14.430  0.00  0.00     0.035 A 
ATOM     10  C   UNL d   1     -45.341  15.809  13.707  0.00  0.00     0.042 A 
ATOM     11  C   UNL d   1     -44.570  16.559  12.803  0.00  0.00     0.080 A 
ATOM     12  C   UNL d   1     -44.828  17.928  12.618  0.00  0.00     0.025 A 
ATOM     13  C   UNL d   1     -45.861  18.550  13.341  0.00  0.00     0.003 A 
ATOM     14  C   UNL d   1     -46.635  17.802  14.245  0.00  0.00     0.017 A 
BRANCH  11  15
ATOM     15  S   UNL d   1     -43.300  15.794  11.917  0.00  0.00     0.261 S 
ATOM     16  O   UNL d   1     -42.196  16.729  11.800  0.00  0.00    -0.200 OA
ATOM     17  O   UNL d   1     -43.830  15.371  10.634  0.00  0.00    -0.200 OA
BRANCH  15  18
ATOM     18  N   UNL d   1     -42.641  14.364  12.656  0.00  0.00    -0.303 N 
ATOM     19  C   UNL d   1     -43.504  13.179  12.728  0.00  0.00     0.161 C 
ATOM     20  C   UNL d   1     -42.707  11.920  13.120  0.00  0.00     0.188 C 
ATOM     21  O   UNL d   1     -42.008  12.157  14.333  0.00  0.00    -0.388 OA
ATOM     22  C   UNL d   1     -41.105  13.251  14.265  0.00  0.00     0.188 C 
ATOM     23  C   UNL d   1     -41.871  14.534  13.893  0.00  0.00     0.161 C 
ENDBRANCH  15  18
ENDBRANCH  11  15
ENDBRANCH   5   9
BRANCH   1  24
ATOM     24  C   UNL d   1     -47.914  11.871  17.879  0.00  0.00     0.048 A 
ATOM     25  C   UNL d   1     -49.307  12.062  17.698  0.00  0.00     0.044 A 
ATOM     26  C   UNL d   1     -50.211  11.462  18.605  0.00  0.00     0.032 A 
ATOM     27  C   UNL d   1     -51.660  11.658  18.424  0.00  0.00     0.070 C 
ATOM     28  N   UNL d   1     -49.766  10.698  19.663  0.00  0.00    -0.253 NA
ATOM     29  C   UNL d   1     -48.414  10.493  19.862  0.00  0.00     0.068 A 
ATOM     30  C   UNL d   1     -47.447  11.077  18.972  0.00  0.00     0.008 A 
ATOM     31  C   UNL d   1     -47.967   9.703  20.951  0.00  0.00     0.032 A 
ATOM     32  C   UNL d   1     -46.061  10.855  19.195  0.00  0.00     0.015 A 
ATOM     33  C   UNL d   1     -45.638  10.066  20.287  0.00  0.00     0.001 A 
ATOM     34  C   UNL d   1     -46.584   9.491  21.162  0.00  0.00     0.002 A 
ENDBRANCH   1  24
TORSDOF 4
ENDMDL
MODEL 3
REMARK VINA RESULT:   -10.000      2.248      3.692
REMARK INTER + INTRA:         -11.587
REMARK INTER:                 -11.887
REMARK INTRA:                   0.300
REMARK UNBOUND:                 0.752
REMARK  4 active torsions:
REMARK  status: ('A' for Active; 'I' for Inactive)
REMARK    1  A    between atoms: C_4  and  C_5 
REMARK       I    between atoms: C_5  and  N_7 
REMARK       I    between atoms: N_8  and  C_9 
REMARK    2  A    between atoms: C_9  and  C_11 
REMARK    3  A    between atoms: C_15  and  S_17 
REMARK    4  A    between atoms: S_17  and  N_20 
ROOT
ATOM      1  C   UNL d   1     -45.202  11.813  18.157  0.00  0.00     0.271 C 
ATOM      2  O   UNL d   1     -44.135  12.255  18.513  0.00  0.00    -0.266 OA
ATOM      3  N   UNL d   1     -45.632  11.995  16.872  0.00  0.00    -0.263 N 
ATOM      4  N   UNL d   1     -44.937  12.603  16.081  0.00  0.00    -0.263 N 
ATOM      5  C   UNL d   1     -45.365  12.784  14.796  0.00  0.00     0.270 C 
ATOM      6  O   UNL d   1     -46.433  12.342  14.440  0.00  0.00    -0.266 OA
ATOM      7  H   UNL d   1     -46.515  11.629  16.584  0.00  0.00     0.190 HD
ATOM      8  H   UNL d   1     -44.053  12.968  16.372  0.00  0.00     0.190 HD
ENDROOT
BRANCH   5   9
ATOM      9  C   UNL d   1     -44.489  13.534  13.846  0.00  0.00     0.035 A 
ATOM     10  C   UNL d   1     -44.841  14.836  13.442  0.00  0.00     0.042 A 
ATOM     11  C   UNL d   1     -44.014  15.537  12.548  0.00  0.00     0.080 A 
ATOM     12  C   UNL d   1     -42.839  14.945  12.057  0.00  0.00     0.025 A 
ATOM     13  C   UNL d   1     -42.489  13.645  12.459  0.00  0.00     0.003 A 
ATOM     14  C   UNL d   1     -43.312  12.940  13.354  0.00  0.00     0.017 A 
BRANCH  11  15
ATOM     15  S   UNL d   1     -44.447  17.135  12.053  0.00  0.00     0.261 S 
ATOM     16  O   UNL d   1     -44.617  17.137  10.611  0.00  0.00    -0.200 OA
ATOM     17  O   UNL d   1     -43.415  18.049  12.509  0.00  0.00    -0.200 OA
BRANCH  15  18
ATOM     18  N   UNL d   1     -45.941  17.734  12.713  0.00  0.00    -0.303 N 
ATOM     19  C   UNL d   1     -46.088  17.726  14.173  0.00  0.00     0.161 C 
ATOM     20  C   UNL d   1     -47.309  18.550  14.624  0.00  0.00     0.188 C 
ATOM     21  O   UNL d   1     -48.473  18.082  13.959  0.00  0.00    -0.388 OA
ATOM     22  C   UNL d   1     -48.386  18.154  12.543  0.00  0.00     0.188 C 
ATOM     23  C   UNL d   1     -47.185  17.324  12.053  0.00  0.00     0.161 C 
ENDBRANCH  15  18
ENDBRANCH  11  15
ENDBRANCH   5   9
BRANCH   1  24
ATOM     24  C   UNL d   1     -46.201  11.052  18.942  0.00  0.00     0.048 A 
ATOM     25  C   UNL d   1     -45.752  10.099  19.892  0.00  0.00     0.044 A 
ATOM     26  C   UNL d   1     -46.704   9.373  20.646  0.00  0.00     0.032 A 
ATOM     27  C   UNL d   1     -46.244   8.382  21.633  0.00  0.00     0.070 C 
ATOM     28  N   UNL d   1     -48.057   9.569  20.474  0.00  0.00    -0.253 NA
ATOM     29  C   UNL d   1     -48.523  10.492  19.556  0.00  0.00     0.068 A 
ATOM     30  C   UNL d   1     -47.604  11.261  18.762  0.00  0.00     0.008 A 
ATOM     31  C   UNL d   1     -49.917  10.687  19.389  0.00  0.00     0.032 A 
ATOM     32  C   UNL d   1     -48.103  12.203  17.823  0.00  0.00     0.015 A 
ATOM     33  C   UNL d   1     -49.496  12.382  17.671  0.00  0.00     0.001 A 
ATOM     34  C   UNL d   1     -50.400  11.628  18.450  0.00  0.00     0.002 A 
ENDBRANCH   1  24
TORSDOF 4
ENDMDL
MODEL 4
REMARK VINA RESULT:    -9.925      5.071      7.776
REMARK INTER + INTRA:         -11.494
REMARK INTER:                 -10.670
REMARK INTRA:                  -0.824
REMARK UNBOUND:                 0.752
REMARK  4 active torsions:
REMARK  status: ('A' for Active; 'I' for Inactive)
REMARK    1  A    between atoms: C_4  and  C_5 
REMARK       I    between atoms: C_5  and  N_7 
REMARK       I    between atoms: N_8  and  C_9 
REMARK    2  A    between atoms: C_9  and  C_11 
REMARK    3  A    between atoms: C_15  and  S_17 
REMARK    4  A    between atoms: S_17  and  N_20 
ROOT
ATOM      1  C   UNL d   1     -46.315  14.048  15.521  0.00  0.00     0.271 C 
ATOM      2  O   UNL d   1     -46.744  13.783  14.423  0.00  0.00    -0.266 OA
ATOM      3  N   UNL d   1     -46.567  15.267  16.086  0.00  0.00    -0.263 N 
ATOM      4  N   UNL d   1     -47.228  16.090  15.482  0.00  0.00    -0.263 N 
ATOM      5  C   UNL d   1     -47.481  17.308  16.046  0.00  0.00     0.270 C 
ATOM      6  O   UNL d   1     -47.051  17.574  17.145  0.00  0.00    -0.266 OA
ATOM      7  H   UNL d   1     -46.209  15.481  16.993  0.00  0.00     0.190 HD
ATOM      8  H   UNL d   1     -47.586  15.872  14.574  0.00  0.00     0.190 HD
ENDROOT
BRANCH   5   9
ATOM      9  C   UNL d   1     -48.297  18.299  15.281  0.00  0.00     0.035 A 
ATOM     10  C   UNL d   1     -49.562  17.935  14.782  0.00  0.00     0.042 A 
ATOM     11  C   UNL d   1     -50.325  18.870  14.063  0.00  0.00     0.080 A 
ATOM     12  C   UNL d   1     -49.831  20.166  13.840  0.00  0.00     0.025 A 
ATOM     13  C   UNL d   1     -48.568  20.529  14.336  0.00  0.00     0.003 A 
ATOM     14  C   UNL d   1     -47.801  19.597  15.058  0.00  0.00     0.017 A 
BRANCH  11  15
ATOM     15  S   UNL d   1     -51.877  18.422  13.452  0.00  0.00     0.261 S 
ATOM     16  O   UNL d   1     -51.690  17.419  12.419  0.00  0.00    -0.200 OA
ATOM     17  O   UNL d   1     -52.543  19.620  12.974  0.00  0.00    -0.200 OA
BRANCH  15  18
ATOM     18  N   UNL d   1     -52.954  17.711  14.620  0.00  0.00    -0.303 N 
ATOM     19  C   UNL d   1     -53.028  18.340  15.944  0.00  0.00     0.161 C 
ATOM     20  C   UNL d   1     -54.221  17.806  16.759  0.00  0.00     0.188 C 
ATOM     21  O   UNL d   1     -54.153  16.390  16.834  0.00  0.00    -0.388 OA
ATOM     22  C   UNL d   1     -54.161  15.752  15.564  0.00  0.00     0.188 C 
ATOM     23  C   UNL d   1     -52.968  16.249  14.727  0.00  0.00     0.161 C 
ENDBRANCH  15  18
ENDBRANCH  11  15
ENDBRANCH   5   9
BRANCH   1  24
ATOM     24  C   UNL d   1     -45.495  13.210  16.426  0.00  0.00     0.048 A 
ATOM     25  C   UNL d   1     -44.082  13.265  16.328  0.00  0.00     0.044 A 
ATOM     26  C   UNL d   1     -43.296  12.468  17.193  0.00  0.00     0.032 A 
ATOM     27  C   UNL d   1     -41.828  12.520  17.095  0.00  0.00     0.070 C 
ATOM     28  N   UNL d   1     -43.876  11.636  18.126  0.00  0.00    -0.253 NA
ATOM     29  C   UNL d   1     -45.251  11.563  18.245  0.00  0.00     0.068 A 
ATOM     30  C   UNL d   1     -46.101  12.351  17.395  0.00  0.00     0.008 A 
ATOM     31  C   UNL d   1     -45.836  10.705  19.210  0.00  0.00     0.032 A 
ATOM     32  C   UNL d   1     -47.512  12.260  17.532  0.00  0.00     0.015 A 
ATOM     33  C   UNL d   1     -48.076  11.399  18.499  0.00  0.00     0.001 A 
ATOM     34  C   UNL d   1     -47.243  10.624  19.336  0.00  0.00     0.002 A 
ENDBRANCH   1  24
TORSDOF 4
ENDMDL
MODEL 5
REMARK VINA RESULT:    -9.783      4.397      7.323
REMARK INTER + INTRA:         -11.319
REMARK INTER:                 -10.608
REMARK INTRA:                  -0.711
REMARK UNBOUND:                 0.752
REMARK  4 active torsions:
REMARK  status: ('A' for Active; 'I' for Inactive)
REMARK    1  A    between atoms: C_4  and  C_5 
REMARK       I    between atoms: C_5  and  N_7 
REMARK       I    between atoms: N_8  and  C_9 
REMARK    2  A    between atoms: C_9  and  C_11 
REMARK    3  A    between atoms: C_15  and  S_17 
REMARK    4  A    between atoms: S_17  and  N_20 
ROOT
ATOM      1  C   UNL d   1     -49.250  15.045  14.434  0.00  0.00     0.271 C 
ATOM      2  O   UNL d   1     -48.162  15.070  13.907  0.00  0.00    -0.266 OA
ATOM      3  N   UNL d   1     -49.446  14.330  15.581  0.00  0.00    -0.263 N 
ATOM      4  N   UNL d   1     -48.521  13.716  16.078  0.00  0.00    -0.263 N 
ATOM      5  C   UNL d   1     -48.716  13.001  17.226  0.00  0.00     0.270 C 
ATOM      6  O   UNL d   1     -49.805  12.975  17.753  0.00  0.00    -0.266 OA
ATOM      7  H   UNL d   1     -50.346  14.312  16.011  0.00  0.00     0.190 HD
ATOM      8  H   UNL d   1     -47.620  13.736  15.646  0.00  0.00     0.190 HD
ENDROOT
BRANCH   5   9
ATOM      9  C   UNL d   1     -47.561  12.256  17.814  0.00  0.00     0.035 A 
ATOM     10  C   UNL d   1     -46.245  12.604  17.458  0.00  0.00     0.042 A 
ATOM     11  C   UNL d   1     -45.162  11.901  18.014  0.00  0.00     0.080 A 
ATOM     12  C   UNL d   1     -45.389  10.854  18.922  0.00  0.00     0.025 A 
ATOM     13  C   UNL d   1     -46.704  10.506  19.276  0.00  0.00     0.003 A 
ATOM     14  C   UNL d   1     -47.789  11.208  18.724  0.00  0.00     0.017 A 
BRANCH  11  15
ATOM     15  S   UNL d   1     -43.547  12.329  17.576  0.00  0.00     0.261 S 
ATOM     16  O   UNL d   1     -42.696  11.170  17.780  0.00  0.00    -0.200 OA
ATOM     17  O   UNL d   1     -43.148  13.477  18.368  0.00  0.00    -0.200 OA
BRANCH  15  18
ATOM     18  N   UNL d   1     -43.330  12.796  15.914  0.00  0.00    -0.303 N 
ATOM     19  C   UNL d   1     -43.966  11.962  14.888  0.00  0.00     0.161 C 
ATOM     20  C   UNL d   1     -43.951  12.649  13.509  0.00  0.00     0.188 C 
ATOM     21  O   UNL d   1     -42.620  13.008  13.170  0.00  0.00    -0.388 OA
ATOM     22  C   UNL d   1     -42.009  13.881  14.109  0.00  0.00     0.188 C 
ATOM     23  C   UNL d   1     -41.989  13.218  15.498  0.00  0.00     0.161 C 
ENDBRANCH  15  18
ENDBRANCH  11  15
ENDBRANCH   5   9
BRANCH   1  24
ATOM     24  C   UNL d   1     -50.504  15.709  14.008  0.00  0.00     0.048 A 
ATOM     25  C   UNL d   1     -51.548  14.924  13.457  0.00  0.00     0.044 A 
ATOM     26  C   UNL d   1     -52.748  15.554  13.053  0.00  0.00     0.032 A 
ATOM     27  C   UNL d   1     -53.837  14.745  12.480  0.00  0.00     0.070 C 
ATOM     28  N   UNL d   1     -52.922  16.916  13.179  0.00  0.00    -0.253 NA
ATOM     29  C   UNL d   1     -51.920  17.706  13.714  0.00  0.00     0.068 A 
ATOM     30  C   UNL d   1     -50.680  17.121  14.144  0.00  0.00     0.008 A 
ATOM     31  C   UNL d   1     -52.110  19.104  13.841  0.00  0.00     0.032 A 
ATOM     32  C   UNL d   1     -49.662  17.950  14.689  0.00  0.00     0.015 A 
ATOM     33  C   UNL d   1     -49.872  19.342  14.807  0.00  0.00     0.001 A 
ATOM     34  C   UNL d   1     -51.089  19.919  14.385  0.00  0.00     0.002 A 
ENDBRANCH   1  24
TORSDOF 4
ENDMDL
MODEL 6
REMARK VINA RESULT:    -9.711      4.428      7.386
REMARK INTER + INTRA:         -11.230
REMARK INTER:                 -10.767
REMARK INTRA:                  -0.463
REMARK UNBOUND:                 0.752
REMARK  4 active torsions:
REMARK  status: ('A' for Active; 'I' for Inactive)
REMARK    1  A    between atoms: C_4  and  C_5 
REMARK       I    between atoms: C_5  and  N_7 
REMARK       I    between atoms: N_8  and  C_9 
REMARK    2  A    between atoms: C_9  and  C_11 
REMARK    3  A    between atoms: C_15  and  S_17 
REMARK    4  A    between atoms: S_17  and  N_20 
ROOT
ATOM      1  C   UNL d   1     -46.542  13.094  15.200  0.00  0.00     0.271 C 
ATOM      2  O   UNL d   1     -46.348  13.089  14.007  0.00  0.00    -0.266 OA
ATOM      3  N   UNL d   1     -47.679  13.653  15.713  0.00  0.00    -0.263 N 
ATOM      4  N   UNL d   1     -48.502  14.147  14.966  0.00  0.00    -0.263 N 
ATOM      5  C   UNL d   1     -49.639  14.705  15.478  0.00  0.00     0.270 C 
ATOM      6  O   UNL d   1     -49.833  14.711  16.672  0.00  0.00    -0.266 OA
ATOM      7  H   UNL d   1     -47.834  13.655  16.699  0.00  0.00     0.190 HD
ATOM      8  H   UNL d   1     -48.344  14.143  13.979  0.00  0.00     0.190 HD
ENDROOT
BRANCH   5   9
ATOM      9  C   UNL d   1     -50.632  15.305  14.536  0.00  0.00     0.035 A 
ATOM     10  C   UNL d   1     -50.356  16.534  13.910  0.00  0.00     0.042 A 
ATOM     11  C   UNL d   1     -51.294  17.094  13.025  0.00  0.00     0.080 A 
ATOM     12  C   UNL d   1     -52.504  16.430  12.762  0.00  0.00     0.025 A 
ATOM     13  C   UNL d   1     -52.780  15.203  13.389  0.00  0.00     0.003 A 
ATOM     14  C   UNL d   1     -51.844  14.639  14.274  0.00  0.00     0.017 A 
BRANCH  11  15
ATOM     15  S   UNL d   1     -50.954  18.603  12.257  0.00  0.00     0.261 S 
ATOM     16  O   UNL d   1     -51.990  19.550  12.631  0.00  0.00    -0.200 OA
ATOM     17  O   UNL d   1     -50.873  18.379  10.825  0.00  0.00    -0.200 OA
BRANCH  15  18
ATOM     18  N   UNL d   1     -49.445  19.340  12.711  0.00  0.00    -0.303 N 
ATOM     19  C   UNL d   1     -49.453  20.242  13.869  0.00  0.00     0.161 C 
ATOM     20  C   UNL d   1     -48.023  20.575  14.337  0.00  0.00     0.188 C 
ATOM     21  O   UNL d   1     -47.274  21.095  13.249  0.00  0.00    -0.388 OA
ATOM     22  C   UNL d   1     -47.184  20.207  12.145  0.00  0.00     0.188 C 
ATOM     23  C   UNL d   1     -48.597  19.866  11.637  0.00  0.00     0.161 C 
ENDBRANCH  15  18
ENDBRANCH  11  15
ENDBRANCH   5   9
BRANCH   1  24
ATOM     24  C   UNL d   1     -45.686  12.557  16.283  0.00  0.00     0.048 A 
ATOM     25  C   UNL d   1     -46.294  11.894  17.380  0.00  0.00     0.044 A 
ATOM     26  C   UNL d   1     -45.479  11.377  18.414  0.00  0.00     0.032 A 
ATOM     27  C   UNL d   1     -46.104  10.689  19.555  0.00  0.00     0.070 C 
ATOM     28  N   UNL d   1     -44.108  11.507  18.380  0.00  0.00    -0.253 NA
ATOM     29  C   UNL d   1     -43.488  12.147  17.322  0.00  0.00     0.068 A 
ATOM     30  C   UNL d   1     -44.264  12.692  16.242  0.00  0.00     0.008 A 
ATOM     31  C   UNL d   1     -42.077  12.273  17.296  0.00  0.00     0.032 A 
ATOM     32  C   UNL d   1     -43.608  13.347  15.165  0.00  0.00     0.015 A 
ATOM     33  C   UNL d   1     -42.200  13.462  15.159  0.00  0.00     0.001 A 
ATOM     34  C   UNL d   1     -41.436  12.928  16.218  0.00  0.00     0.002 A 
ENDBRANCH   1  24
TORSDOF 4
ENDMDL
MODEL 7
REMARK VINA RESULT:    -9.705      3.401     10.152
REMARK INTER + INTRA:         -11.223
REMARK INTER:                 -10.697
REMARK INTRA:                  -0.526
REMARK UNBOUND:                 0.752
REMARK  4 active torsions:
REMARK  status: ('A' for Active; 'I' for Inactive)
REMARK    1  A    between atoms: C_4  and  C_5 
REMARK       I    between atoms: C_5  and  N_7 
REMARK       I    between atoms: N_8  and  C_9 
REMARK    2  A    between atoms: C_9  and  C_11 
REMARK    3  A    between atoms: C_15  and  S_17 
REMARK    4  A    between atoms: S_17  and  N_20 
ROOT
ATOM      1  C   UNL d   1     -46.019  14.078  13.775  0.00  0.00     0.271 C 
ATOM      2  O   UNL d   1     -46.873  13.444  13.199  0.00  0.00    -0.266 OA
ATOM      3  N   UNL d   1     -45.896  13.997  15.133  0.00  0.00    -0.263 N 
ATOM      4  N   UNL d   1     -46.647  13.282  15.769  0.00  0.00    -0.263 N 
ATOM      5  C   UNL d   1     -46.524  13.200  17.127  0.00  0.00     0.270 C 
ATOM      6  O   UNL d   1     -45.670  13.834  17.703  0.00  0.00    -0.266 OA
ATOM      7  H   UNL d   1     -45.190  14.523  15.603  0.00  0.00     0.190 HD
ATOM      8  H   UNL d   1     -47.353  12.756  15.295  0.00  0.00     0.190 HD
ENDROOT
BRANCH   5   9
ATOM      9  C   UNL d   1     -47.461  12.313  17.881  0.00  0.00     0.035 A 
ATOM     10  C   UNL d   1     -46.961  11.416  18.843  0.00  0.00     0.042 A 
ATOM     11  C   UNL d   1     -47.846  10.584  19.550  0.00  0.00     0.080 A 
ATOM     12  C   UNL d   1     -49.227  10.645  19.300  0.00  0.00     0.025 A 
ATOM     13  C   UNL d   1     -49.726  11.540  18.338  0.00  0.00     0.003 A 
ATOM     14  C   UNL d   1     -48.844  12.375  17.630  0.00  0.00     0.017 A 
BRANCH  11  15
ATOM     15  S   UNL d   1     -47.231   9.484  20.730  0.00  0.00     0.261 S 
ATOM     16  O   UNL d   1     -45.908   9.931  21.128  0.00  0.00    -0.200 OA
ATOM     17  O   UNL d   1     -47.235   8.150  20.157  0.00  0.00    -0.200 OA
BRANCH  15  18
ATOM     18  N   UNL d   1     -48.161   9.377  22.196  0.00  0.00    -0.303 N 
ATOM     19  C   UNL d   1     -48.805  10.603  22.681  0.00  0.00     0.161 C 
ATOM     20  C   UNL d   1     -49.827  10.304  23.795  0.00  0.00     0.188 C 
ATOM     21  O   UNL d   1     -49.198   9.574  24.836  0.00  0.00    -0.388 OA
ATOM     22  C   UNL d   1     -48.636   8.342  24.407  0.00  0.00     0.188 C 
ATOM     23  C   UNL d   1     -47.593   8.603  23.305  0.00  0.00     0.161 C 
ENDBRANCH  15  18
ENDBRANCH  11  15
ENDBRANCH   5   9
BRANCH   1  24
ATOM     24  C   UNL d   1     -45.008  15.001  13.210  0.00  0.00     0.048 A 
ATOM     25  C   UNL d   1     -43.754  14.484  12.798  0.00  0.00     0.044 A 
ATOM     26  C   UNL d   1     -42.788  15.363  12.254  0.00  0.00     0.032 A 
ATOM     27  C   UNL d   1     -41.483  14.832  11.825  0.00  0.00     0.070 C 
ATOM     28  N   UNL d   1     -43.039  16.712  12.120  0.00  0.00    -0.253 NA
ATOM     29  C   UNL d   1     -44.254  17.243  12.512  0.00  0.00     0.068 A 
ATOM     30  C   UNL d   1     -45.274  16.399  13.070  0.00  0.00     0.008 A 
ATOM     31  C   UNL d   1     -44.502  18.631  12.368  0.00  0.00     0.032 A 
ATOM     32  C   UNL d   1     -46.515  16.965  13.469  0.00  0.00     0.015 A 
ATOM     33  C   UNL d   1     -46.743  18.350  13.317  0.00  0.00     0.001 A 
ATOM     34  C   UNL d   1     -45.742  19.182  12.769  0.00  0.00     0.002 A 
ENDBRANCH   1  24
TORSDOF 4
ENDMDL
MODEL 8
REMARK VINA RESULT:    -9.572      4.162      6.947
REMARK INTER + INTRA:         -11.059
REMARK INTER:                 -10.327
REMARK INTRA:                  -0.732
REMARK UNBOUND:                 0.752
REMARK  4 active torsions:
REMARK  status: ('A' for Active; 'I' for Inactive)
REMARK    1  A    between atoms: C_4  and  C_5 
REMARK       I    between atoms: C_5  and  N_7 
REMARK       I    between atoms: N_8  and  C_9 
REMARK    2  A    between atoms: C_9  and  C_11 
REMARK    3  A    between atoms: C_15  and  S_17 
REMARK    4  A    between atoms: S_17  and  N_20 
ROOT
ATOM      1  C   UNL d   1     -47.213  13.324  15.668  0.00  0.00     0.271 C 
ATOM      2  O   UNL d   1     -47.426  13.081  14.503  0.00  0.00    -0.266 OA
ATOM      3  N   UNL d   1     -47.814  14.392  16.272  0.00  0.00    -0.263 N 
ATOM      4  N   UNL d   1     -48.569  15.102  15.637  0.00  0.00    -0.263 N 
ATOM      5  C   UNL d   1     -49.170  16.170  16.240  0.00  0.00     0.270 C 
ATOM      6  O   UNL d   1     -48.957  16.414  17.406  0.00  0.00    -0.266 OA
ATOM      7  H   UNL d   1     -47.633  14.589  17.234  0.00  0.00     0.190 HD
ATOM      8  H   UNL d   1     -48.748  14.902  14.674  0.00  0.00     0.190 HD
ENDROOT
BRANCH   5   9
ATOM      9  C   UNL d   1     -50.094  17.025  15.434  0.00  0.00     0.035 A 
ATOM     10  C   UNL d   1     -49.584  17.839  14.406  0.00  0.00     0.042 A 
ATOM     11  C   UNL d   1     -50.456  18.640  13.651  0.00  0.00     0.080 A 
ATOM     12  C   UNL d   1     -51.836  18.632  13.918  0.00  0.00     0.025 A 
ATOM     13  C   UNL d   1     -52.345  17.821  14.946  0.00  0.00     0.003 A 
ATOM     14  C   UNL d   1     -51.476  17.016  15.703  0.00  0.00     0.017 A 
BRANCH  11  15
ATOM     15  S   UNL d   1     -49.829  19.639  12.389  0.00  0.00     0.261 S 
ATOM     16  O   UNL d   1     -50.118  21.025  12.716  0.00  0.00    -0.200 OA
ATOM     17  O   UNL d   1     -50.418  19.213  11.134  0.00  0.00    -0.200 OA
BRANCH  15  18
ATOM     18  N   UNL d   1     -48.106  19.549  12.164  0.00  0.00    -0.303 N 
ATOM     19  C   UNL d   1     -47.410  20.777  11.762  0.00  0.00     0.161 C 
ATOM     20  C   UNL d   1     -45.882  20.632  11.895  0.00  0.00     0.188 C 
ATOM     21  O   UNL d   1     -45.446  19.497  11.163  0.00  0.00    -0.388 OA
ATOM     22  C   UNL d   1     -46.045  18.281  11.588  0.00  0.00     0.188 C 
ATOM     23  C   UNL d   1     -47.576  18.383  11.451  0.00  0.00     0.161 C 
ENDBRANCH  15  18
ENDBRANCH  11  15
ENDBRANCH   5   9
BRANCH   1  24
ATOM     24  C   UNL d   1     -46.339  12.603  16.623  0.00  0.00     0.048 A 
ATOM     25  C   UNL d   1     -46.930  11.875  17.686  0.00  0.00     0.044 A 
ATOM     26  C   UNL d   1     -46.098  11.183  18.597  0.00  0.00     0.032 A 
ATOM     27  C   UNL d   1     -46.705  10.426  19.704  0.00  0.00     0.070 C 
ATOM     28  N   UNL d   1     -44.725  11.205  18.475  0.00  0.00    -0.253 NA
ATOM     29  C   UNL d   1     -44.122  11.906  17.447  0.00  0.00     0.068 A 
ATOM     30  C   UNL d   1     -44.916  12.627  16.490  0.00  0.00     0.008 A 
ATOM     31  C   UNL d   1     -42.710  11.920  17.330  0.00  0.00     0.032 A 
ATOM     32  C   UNL d   1     -44.276  13.343  15.442  0.00  0.00     0.015 A 
ATOM     33  C   UNL d   1     -42.867  13.344  15.343  0.00  0.00     0.001 A 
ATOM     34  C   UNL d   1     -42.085  12.637  16.282  0.00  0.00     0.002 A 
ENDBRANCH   1  24
TORSDOF 4
ENDMDL
MODEL 9
REMARK VINA RESULT:    -9.528      5.168      8.042
REMARK INTER + INTRA:         -11.004
REMARK INTER:                 -10.233
REMARK INTRA:                  -0.771
REMARK UNBOUND:                 0.752
REMARK  4 active torsions:
REMARK  status: ('A' for Active; 'I' for Inactive)
REMARK    1  A    between atoms: C_4  and  C_5 
REMARK       I    between atoms: C_5  and  N_7 
REMARK       I    between atoms: N_8  and  C_9 
REMARK    2  A    between atoms: C_9  and  C_11 
REMARK    3  A    between atoms: C_15  and  S_17 
REMARK    4  A    between atoms: S_17  and  N_20 
ROOT
ATOM      1  C   UNL d   1     -46.464  14.029  15.550  0.00  0.00     0.271 C 
ATOM      2  O   UNL d   1     -46.930  13.791  14.460  0.00  0.00    -0.266 OA
ATOM      3  N   UNL d   1     -46.646  15.254  16.127  0.00  0.00    -0.263 N 
ATOM      4  N   UNL d   1     -47.281  16.111  15.542  0.00  0.00    -0.263 N 
ATOM      5  C   UNL d   1     -47.464  17.336  16.119  0.00  0.00     0.270 C 
ATOM      6  O   UNL d   1     -46.998  17.575  17.209  0.00  0.00    -0.266 OA
ATOM      7  H   UNL d   1     -46.258  15.446  17.026  0.00  0.00     0.190 HD
ATOM      8  H   UNL d   1     -47.668  15.917  14.642  0.00  0.00     0.190 HD
ENDROOT
BRANCH   5   9
ATOM      9  C   UNL d   1     -48.249  18.370  15.377  0.00  0.00     0.035 A 
ATOM     10  C   UNL d   1     -49.655  18.312  15.367  0.00  0.00     0.042 A 
ATOM     11  C   UNL d   1     -50.389  19.285  14.668  0.00  0.00     0.080 A 
ATOM     12  C   UNL d   1     -49.725  20.316  13.982  0.00  0.00     0.025 A 
ATOM     13  C   UNL d   1     -48.321  20.372  13.991  0.00  0.00     0.003 A 
ATOM     14  C   UNL d   1     -47.583  19.401  14.690  0.00  0.00     0.017 A 
BRANCH  11  15
ATOM     15  S   UNL d   1     -52.115  19.213  14.655  0.00  0.00     0.261 S 
ATOM     16  O   UNL d   1     -52.575  19.499  13.308  0.00  0.00    -0.200 OA
ATOM     17  O   UNL d   1     -52.618  20.151  15.642  0.00  0.00    -0.200 OA
BRANCH  15  18
ATOM     18  N   UNL d   1     -52.793  17.667  15.076  0.00  0.00    -0.303 N 
ATOM     19  C   UNL d   1     -52.617  16.568  14.120  0.00  0.00     0.161 C 
ATOM     20  C   UNL d   1     -52.991  15.209  14.743  0.00  0.00     0.188 C 
ATOM     21  O   UNL d   1     -54.310  15.270  15.264  0.00  0.00    -0.388 OA
ATOM     22  C   UNL d   1     -54.486  16.276  16.252  0.00  0.00     0.188 C 
ATOM     23  C   UNL d   1     -54.139  17.653  15.657  0.00  0.00     0.161 C 
ENDBRANCH  15  18
ENDBRANCH  11  15
ENDBRANCH   5   9
BRANCH   1  24
ATOM     24  C   UNL d   1     -45.665  13.147  16.431  0.00  0.00     0.048 A 
ATOM     25  C   UNL d   1     -46.320  12.418  17.456  0.00  0.00     0.044 A 
ATOM     26  C   UNL d   1     -45.560  11.572  18.298  0.00  0.00     0.032 A 
ATOM     27  C   UNL d   1     -46.234  10.813  19.364  0.00  0.00     0.070 C 
ATOM     28  N   UNL d   1     -44.197  11.444  18.144  0.00  0.00    -0.253 NA
ATOM     29  C   UNL d   1     -43.532  12.141  17.152  0.00  0.00     0.068 A 
ATOM     30  C   UNL d   1     -44.252  13.015  16.266  0.00  0.00     0.008 A 
ATOM     31  C   UNL d   1     -42.130  12.000  17.002  0.00  0.00     0.032 A 
ATOM     32  C   UNL d   1     -43.550  13.724  15.254  0.00  0.00     0.015 A 
ATOM     33  C   UNL d   1     -42.152  13.570  15.122  0.00  0.00     0.001 A 
ATOM     34  C   UNL d   1     -41.443  12.712  15.990  0.00  0.00     0.002 A 
ENDBRANCH   1  24
TORSDOF 4
ENDMDL
