MODEL 1
REMARK VINA RESULT:    -8.819      0.000      0.000
REMARK INTER + INTRA:         -13.684
REMARK INTER:                 -12.686
REMARK INTRA:                  -0.998
REMARK UNBOUND:                -0.998
REMARK  Name = 
REMARK  9 active torsions:
REMARK  status: ('A' for Active; 'I' for Inactive)
REMARK    1  A    between atoms: C_1  and  N_2
REMARK    2  A    between atoms: N_5  and  C_8
REMARK    3  A    between atoms: C_10  and  N_19
REMARK    4  A    between atoms: C_11  and  O_14
REMARK    5  A    between atoms: O_14  and  C_15
REMARK    6  A    between atoms: N_30  and  C_36
REMARK    7  A    between atoms: C_32  and  C_33
REMARK    8  A    between atoms: C_36  and  C_37
REMARK    9  A    between atoms: C_37  and  O_38
REMARK                            x       y       z     vdW  Elec       q    Type
REMARK                         _______ _______ _______ _____ _____    ______ ____
ROOT
ATOM      1  N   UNL     1     -46.853  13.335  16.436  0.00  0.00    +0.000 N 
ATOM      2  C   UNL     1     -47.049  14.755  16.374  0.00  0.00    +0.000 A 
ATOM      3  N   UNL     1     -47.746  15.408  17.344  0.00  0.00    +0.000 NA
ATOM      4  C   UNL     1     -47.971  16.745  17.275  0.00  0.00    +0.000 A 
ATOM      5  C   UNL     1     -47.504  17.476  16.179  0.00  0.00    +0.000 A 
ATOM      6  C   UNL     1     -47.668  18.985  16.116  0.00  0.00    +0.000 C 
ATOM      7  C   UNL     1     -47.735  19.532  14.671  0.00  0.00    +0.000 C 
ATOM      8  C   UNL     1     -46.751  18.825  13.782  0.00  0.00    +0.000 A 
ATOM      9  C   UNL     1     -46.315  17.548  14.019  0.00  0.00    +0.000 A 
ATOM     10  C   UNL     1     -46.774  16.787  15.193  0.00  0.00    +0.000 A 
ATOM     11  N   UNL     1     -46.576  15.449  15.306  0.00  0.00    +0.000 NA
ATOM     12  N   UNL     1     -45.452  17.188  13.040  0.00  0.00    +0.000 N 
ATOM     13  N   UNL     1     -45.331  18.196  12.185  0.00  0.00    +0.000 NA
ATOM     14  C   UNL     1     -46.132  19.202  12.598  0.00  0.00    +0.000 A 
ATOM     15  H   UNL     1     -46.487  12.860  15.579  0.00  0.00    +0.000 HD
ENDROOT
BRANCH   1  18
ATOM     16  C   UNL     1     -49.064  11.287  18.678  0.00  0.00    +0.000 A 
ATOM     17  C   UNL     1     -48.629  12.094  17.615  0.00  0.00    +0.000 A 
ATOM     18  C   UNL     1     -47.293  12.520  17.535  0.00  0.00    +0.000 A 
ATOM     19  C   UNL     1     -46.388  12.176  18.556  0.00  0.00    +0.000 A 
ATOM     20  C   UNL     1     -46.829  11.369  19.623  0.00  0.00    +0.000 A 
ATOM     21  C   UNL     1     -48.150  10.922  19.675  0.00  0.00    +0.000 A 
BRANCH  16  26
ATOM     22  C   UNL     1     -54.554  10.380  18.042  0.00  0.00    +0.000 C 
ATOM     23  N   UNL     1     -53.178  10.219  18.537  0.00  0.00    +0.000 NA
ATOM     24  C   UNL     1     -52.743  11.455  19.217  0.00  0.00    +0.000 C 
ATOM     25  C   UNL     1     -51.333  11.283  19.788  0.00  0.00    +0.000 C 
ATOM     26  N   UNL     1     -50.425  10.819  18.735  0.00  0.00    +0.000 N 
ATOM     27  C   UNL     1     -50.854   9.670  17.930  0.00  0.00    +0.000 C 
ATOM     28  C   UNL     1     -52.273   9.905  17.414  0.00  0.00    +0.000 C 
ENDBRANCH  16  26
BRANCH  19  29
ATOM     29  O   UNL     1     -45.064  12.642  18.467  0.00  0.00    +0.000 OA
BRANCH  29  30
ATOM     30  C   UNL     1     -43.985  11.960  17.832  0.00  0.00    +0.000 C 
ATOM     31  F   UNL     1     -43.604  10.890  18.621  0.00  0.00    +0.000 F 
ATOM     32  F   UNL     1     -42.904  12.811  17.684  0.00  0.00    +0.000 F 
ATOM     33  F   UNL     1     -44.383  11.482  16.597  0.00  0.00    +0.000 F 
ENDBRANCH  29  30
ENDBRANCH  19  29
ENDBRANCH   1  18
BRANCH  14  34
ATOM     34  C   UNL     1     -46.266  20.470  11.856  0.00  0.00    +0.000 C 
ATOM     35  O   UNL     1     -47.280  21.189  12.053  0.00  0.00    +0.000 OA
ATOM     36  N   UNL     1     -45.255  20.925  10.955  0.00  0.00    +0.000 N 
ATOM     37  H   UNL     1     -45.415  21.785  10.386  0.00  0.00    +0.000 HD
ATOM     38  H   UNL     1     -44.306  20.493  10.937  0.00  0.00    +0.000 HD
ENDBRANCH  14  34
BRANCH  12  39
ATOM     39  C   UNL     1     -44.676  15.954  12.916  0.00  0.00    +0.000 C 
BRANCH  39  40
ATOM     40  C   UNL     1     -43.860  15.951  11.625  0.00  0.00    +0.000 C 
BRANCH  40  41
ATOM     41  O   UNL     1     -43.805  14.660  11.086  0.00  0.00    +0.000 OA
ATOM     42  H   UNL     1     -44.522  14.615  10.403  0.00  0.00    +0.000 HD
ENDBRANCH  40  41
ENDBRANCH  39  40
ENDBRANCH  12  39
TORSDOF 8
ENDMDL
MODEL 2
REMARK VINA RESULT:    -8.495      3.857      5.977
REMARK INTER + INTRA:         -13.218
REMARK INTER:                 -12.420
REMARK INTRA:                  -0.798
REMARK UNBOUND:                -0.998
REMARK  Name = 
REMARK  9 active torsions:
REMARK  status: ('A' for Active; 'I' for Inactive)
REMARK    1  A    between atoms: C_1  and  N_2
REMARK    2  A    between atoms: N_5  and  C_8
REMARK    3  A    between atoms: C_10  and  N_19
REMARK    4  A    between atoms: C_11  and  O_14
REMARK    5  A    between atoms: O_14  and  C_15
REMARK    6  A    between atoms: N_30  and  C_36
REMARK    7  A    between atoms: C_32  and  C_33
REMARK    8  A    between atoms: C_36  and  C_37
REMARK    9  A    between atoms: C_37  and  O_38
REMARK                            x       y       z     vdW  Elec       q    Type
REMARK                         _______ _______ _______ _____ _____    ______ ____
ROOT
ATOM      1  N   UNL     1     -46.351  14.060  14.957  0.00  0.00    +0.000 N 
ATOM      2  C   UNL     1     -44.937  13.835  15.042  0.00  0.00    +0.000 A 
ATOM      3  N   UNL     1     -44.391  13.216  16.125  0.00  0.00    +0.000 NA
ATOM      4  C   UNL     1     -43.051  13.033  16.233  0.00  0.00    +0.000 A 
ATOM      5  C   UNL     1     -42.198  13.505  15.232  0.00  0.00    +0.000 A 
ATOM      6  C   UNL     1     -40.702  13.241  15.287  0.00  0.00    +0.000 C 
ATOM      7  C   UNL     1     -39.865  14.318  14.559  0.00  0.00    +0.000 C 
ATOM      8  C   UNL     1     -40.528  14.740  13.278  0.00  0.00    +0.000 A 
ATOM      9  C   UNL     1     -41.881  14.663  13.077  0.00  0.00    +0.000 A 
ATOM     10  C   UNL     1     -42.780  14.130  14.114  0.00  0.00    +0.000 A 
ATOM     11  N   UNL     1     -44.126  14.292  14.052  0.00  0.00    +0.000 NA
ATOM     12  N   UNL     1     -42.170  15.128  11.839  0.00  0.00    +0.000 N 
ATOM     13  N   UNL     1     -41.042  15.504  11.249  0.00  0.00    +0.000 NA
ATOM     14  C   UNL     1     -40.023  15.303  12.113  0.00  0.00    +0.000 A 
ATOM     15  H   UNL     1     -46.693  14.706  14.209  0.00  0.00    +0.000 HD
ENDROOT
BRANCH   1  18
ATOM     16  C   UNL     1     -47.877  12.054  17.742  0.00  0.00    +0.000 A 
ATOM     17  C   UNL     1     -46.970  12.508  16.772  0.00  0.00    +0.000 A 
ATOM     18  C   UNL     1     -47.291  13.594  15.939  0.00  0.00    +0.000 A 
ATOM     19  C   UNL     1     -48.554  14.205  16.044  0.00  0.00    +0.000 A 
ATOM     20  C   UNL     1     -49.462  13.745  17.016  0.00  0.00    +0.000 A 
ATOM     21  C   UNL     1     -49.120  12.689  17.863  0.00  0.00    +0.000 A 
BRANCH  16  26
ATOM     22  C   UNL     1     -46.535   8.730  22.045  0.00  0.00    +0.000 C 
ATOM     23  N   UNL     1     -46.850   9.145  20.670  0.00  0.00    +0.000 NA
ATOM     24  C   UNL     1     -45.854  10.131  20.204  0.00  0.00    +0.000 C 
ATOM     25  C   UNL     1     -46.135  10.530  18.753  0.00  0.00    +0.000 C 
ATOM     26  N   UNL     1     -47.528  10.968  18.620  0.00  0.00    +0.000 N 
ATOM     27  C   UNL     1     -48.567  10.095  19.178  0.00  0.00    +0.000 C 
ATOM     28  C   UNL     1     -48.208   9.723  20.617  0.00  0.00    +0.000 C 
ENDBRANCH  16  26
BRANCH  19  29
ATOM     29  O   UNL     1     -48.860  15.269  15.177  0.00  0.00    +0.000 OA
BRANCH  29  30
ATOM     30  C   UNL     1     -48.734  16.655  15.487  0.00  0.00    +0.000 C 
ATOM     31  F   UNL     1     -49.470  16.929  16.624  0.00  0.00    +0.000 F 
ATOM     32  F   UNL     1     -49.222  17.423  14.445  0.00  0.00    +0.000 F 
ATOM     33  F   UNL     1     -47.409  16.972  15.726  0.00  0.00    +0.000 F 
ENDBRANCH  29  30
ENDBRANCH  19  29
ENDBRANCH   1  18
BRANCH  14  34
ATOM     34  C   UNL     1     -38.625  15.645  11.791  0.00  0.00    +0.000 C 
ATOM     35  O   UNL     1     -37.822  15.886  12.730  0.00  0.00    +0.000 OA
ATOM     36  N   UNL     1     -38.147  15.665  10.445  0.00  0.00    +0.000 N 
ATOM     37  H   UNL     1     -37.175  15.988  10.243  0.00  0.00    +0.000 HD
ATOM     38  H   UNL     1     -38.698  15.248   9.664  0.00  0.00    +0.000 HD
ENDBRANCH  14  34
BRANCH  12  39
ATOM     39  C   UNL     1     -43.464  15.166  11.158  0.00  0.00    +0.000 C 
BRANCH  39  40
ATOM     40  C   UNL     1     -44.100  16.550  11.272  0.00  0.00    +0.000 C 
BRANCH  40  41
ATOM     41  O   UNL     1     -45.073  16.556  12.279  0.00  0.00    +0.000 OA
ATOM     42  H   UNL     1     -45.158  15.617  12.586  0.00  0.00    +0.000 HD
ENDBRANCH  40  41
ENDBRANCH  39  40
ENDBRANCH  12  39
TORSDOF 8
ENDMDL
MODEL 3
REMARK VINA RESULT:    -8.216      2.796      3.685
REMARK INTER + INTRA:         -12.816
REMARK INTER:                 -11.818
REMARK INTRA:                  -0.999
REMARK UNBOUND:                -0.998
REMARK  Name = 
REMARK  9 active torsions:
REMARK  status: ('A' for Active; 'I' for Inactive)
REMARK    1  A    between atoms: C_1  and  N_2
REMARK    2  A    between atoms: N_5  and  C_8
REMARK    3  A    between atoms: C_10  and  N_19
REMARK    4  A    between atoms: C_11  and  O_14
REMARK    5  A    between atoms: O_14  and  C_15
REMARK    6  A    between atoms: N_30  and  C_36
REMARK    7  A    between atoms: C_32  and  C_33
REMARK    8  A    between atoms: C_36  and  C_37
REMARK    9  A    between atoms: C_37  and  O_38
REMARK                            x       y       z     vdW  Elec       q    Type
REMARK                         _______ _______ _______ _____ _____    ______ ____
ROOT
ATOM      1  N   UNL     1     -45.197  14.120  15.122  0.00  0.00    +0.000 N 
ATOM      2  C   UNL     1     -46.243  15.087  15.301  0.00  0.00    +0.000 A 
ATOM      3  N   UNL     1     -46.976  15.118  16.448  0.00  0.00    +0.000 NA
ATOM      4  C   UNL     1     -47.993  16.003  16.612  0.00  0.00    +0.000 A 
ATOM      5  C   UNL     1     -48.321  16.889  15.583  0.00  0.00    +0.000 A 
ATOM      6  C   UNL     1     -49.397  17.945  15.771  0.00  0.00    +0.000 C 
ATOM      7  C   UNL     1     -50.085  18.358  14.448  0.00  0.00    +0.000 C 
ATOM      8  C   UNL     1     -49.084  18.466  13.332  0.00  0.00    +0.000 A 
ATOM      9  C   UNL     1     -47.911  17.758  13.311  0.00  0.00    +0.000 A 
ATOM     10  C   UNL     1     -47.543  16.852  14.411  0.00  0.00    +0.000 A 
ATOM     11  N   UNL     1     -46.537  15.948  14.292  0.00  0.00    +0.000 NA
ATOM     12  N   UNL     1     -47.237  18.058  12.176  0.00  0.00    +0.000 N 
ATOM     13  N   UNL     1     -47.949  18.930  11.473  0.00  0.00    +0.000 NA
ATOM     14  C   UNL     1     -49.096  19.180  12.142  0.00  0.00    +0.000 A 
ATOM     15  H   UNL     1     -44.802  14.011  14.160  0.00  0.00    +0.000 HD
ENDROOT
BRANCH   1  18
ATOM     16  C   UNL     1     -45.371  11.668  17.962  0.00  0.00    +0.000 A 
ATOM     17  C   UNL     1     -45.754  12.591  16.975  0.00  0.00    +0.000 A 
ATOM     18  C   UNL     1     -44.796  13.186  16.137  0.00  0.00    +0.000 A 
ATOM     19  C   UNL     1     -43.432  12.894  16.318  0.00  0.00    +0.000 A 
ATOM     20  C   UNL     1     -43.052  11.970  17.310  0.00  0.00    +0.000 A 
ATOM     21  C   UNL     1     -44.014  11.357  18.114  0.00  0.00    +0.000 A 
BRANCH  16  26
ATOM     22  C   UNL     1     -49.246  10.308  21.770  0.00  0.00    +0.000 C 
ATOM     23  N   UNL     1     -48.325  10.172  20.631  0.00  0.00    +0.000 NA
ATOM     24  C   UNL     1     -46.935  10.381  21.085  0.00  0.00    +0.000 C 
ATOM     25  C   UNL     1     -45.959  10.187  19.922  0.00  0.00    +0.000 C 
ATOM     26  N   UNL     1     -46.360  11.030  18.791  0.00  0.00    +0.000 N 
ATOM     27  C   UNL     1     -47.764  10.969  18.368  0.00  0.00    +0.000 C 
ATOM     28  C   UNL     1     -48.675  11.150  19.582  0.00  0.00    +0.000 C 
ENDBRANCH  16  26
BRANCH  19  29
ATOM     29  O   UNL     1     -42.492  13.528  15.486  0.00  0.00    +0.000 OA
BRANCH  29  30
ATOM     30  C   UNL     1     -41.784  12.912  14.413  0.00  0.00    +0.000 C 
ATOM     31  F   UNL     1     -40.645  12.310  14.914  0.00  0.00    +0.000 F 
ATOM     32  F   UNL     1     -41.410  13.862  13.480  0.00  0.00    +0.000 F 
ATOM     33  F   UNL     1     -42.571  11.946  13.813  0.00  0.00    +0.000 F 
ENDBRANCH  29  30
ENDBRANCH  19  29
ENDBRANCH   1  18
BRANCH  14  34
ATOM     34  C   UNL     1     -50.139  20.086  11.625  0.00  0.00    +0.000 C 
ATOM     35  O   UNL     1     -49.885  21.314  11.519  0.00  0.00    +0.000 OA
ATOM     36  N   UNL     1     -51.412  19.600  11.196  0.00  0.00    +0.000 N 
ATOM     37  H   UNL     1     -52.157  20.274  10.911  0.00  0.00    +0.000 HD
ATOM     38  H   UNL     1     -51.584  18.583  11.042  0.00  0.00    +0.000 HD
ENDBRANCH  14  34
BRANCH  12  39
ATOM     39  C   UNL     1     -45.908  17.610  11.759  0.00  0.00    +0.000 C 
BRANCH  39  40
ATOM     40  C   UNL     1     -44.842  18.633  12.145  0.00  0.00    +0.000 C 
BRANCH  40  41
ATOM     41  O   UNL     1     -44.717  18.702  13.539  0.00  0.00    +0.000 OA
ATOM     42  H   UNL     1     -44.021  19.386  13.719  0.00  0.00    +0.000 HD
ENDBRANCH  40  41
ENDBRANCH  39  40
ENDBRANCH  12  39
TORSDOF 8
ENDMDL
MODEL 4
REMARK VINA RESULT:    -7.883      4.158      7.392
REMARK INTER + INTRA:         -12.338
REMARK INTER:                 -11.272
REMARK INTRA:                  -1.066
REMARK UNBOUND:                -0.998
REMARK  Name = 
REMARK  9 active torsions:
REMARK  status: ('A' for Active; 'I' for Inactive)
REMARK    1  A    between atoms: C_1  and  N_2
REMARK    2  A    between atoms: N_5  and  C_8
REMARK    3  A    between atoms: C_10  and  N_19
REMARK    4  A    between atoms: C_11  and  O_14
REMARK    5  A    between atoms: O_14  and  C_15
REMARK    6  A    between atoms: N_30  and  C_36
REMARK    7  A    between atoms: C_32  and  C_33
REMARK    8  A    between atoms: C_36  and  C_37
REMARK    9  A    between atoms: C_37  and  O_38
REMARK                            x       y       z     vdW  Elec       q    Type
REMARK                         _______ _______ _______ _____ _____    ______ ____
ROOT
ATOM      1  N   UNL     1     -47.869  13.895  15.995  0.00  0.00    +0.000 N 
ATOM      2  C   UNL     1     -48.313  15.244  15.796  0.00  0.00    +0.000 A 
ATOM      3  N   UNL     1     -47.433  16.283  15.838  0.00  0.00    +0.000 NA
ATOM      4  C   UNL     1     -47.849  17.567  15.689  0.00  0.00    +0.000 A 
ATOM      5  C   UNL     1     -49.206  17.846  15.512  0.00  0.00    +0.000 A 
ATOM      6  C   UNL     1     -49.689  19.264  15.259  0.00  0.00    +0.000 C 
ATOM      7  C   UNL     1     -51.139  19.510  15.739  0.00  0.00    +0.000 C 
ATOM      8  C   UNL     1     -52.016  18.330  15.429  0.00  0.00    +0.000 A 
ATOM      9  C   UNL     1     -51.534  17.053  15.310  0.00  0.00    +0.000 A 
ATOM     10  C   UNL     1     -50.099  16.759  15.457  0.00  0.00    +0.000 A 
ATOM     11  N   UNL     1     -49.636  15.493  15.613  0.00  0.00    +0.000 NA
ATOM     12  N   UNL     1     -52.564  16.216  15.045  0.00  0.00    +0.000 N 
ATOM     13  N   UNL     1     -53.687  16.922  14.998  0.00  0.00    +0.000 NA
ATOM     14  C   UNL     1     -53.388  18.214  15.254  0.00  0.00    +0.000 A 
ATOM     15  H   UNL     1     -48.601  13.163  16.148  0.00  0.00    +0.000 HD
ENDROOT
BRANCH   1  18
ATOM     16  C   UNL     1     -44.204  13.423  15.316  0.00  0.00    +0.000 A 
ATOM     17  C   UNL     1     -45.555  13.765  15.148  0.00  0.00    +0.000 A 
ATOM     18  C   UNL     1     -46.490  13.529  16.170  0.00  0.00    +0.000 A 
ATOM     19  C   UNL     1     -46.080  12.898  17.359  0.00  0.00    +0.000 A 
ATOM     20  C   UNL     1     -44.725  12.553  17.522  0.00  0.00    +0.000 A 
ATOM     21  C   UNL     1     -43.797  12.824  16.515  0.00  0.00    +0.000 A 
BRANCH  16  26
ATOM     22  C   UNL     1     -40.520  15.691  11.759  0.00  0.00    +0.000 C 
ATOM     23  N   UNL     1     -41.362  14.677  12.411  0.00  0.00    +0.000 NA
ATOM     24  C   UNL     1     -42.785  15.052  12.285  0.00  0.00    +0.000 C 
ATOM     25  C   UNL     1     -43.678  13.976  12.908  0.00  0.00    +0.000 C 
ATOM     26  N   UNL     1     -43.243  13.704  14.281  0.00  0.00    +0.000 N 
ATOM     27  C   UNL     1     -41.815  13.449  14.499  0.00  0.00    +0.000 C 
ATOM     28  C   UNL     1     -40.988  14.550  13.833  0.00  0.00    +0.000 C 
ENDBRANCH  16  26
BRANCH  19  29
ATOM     29  O   UNL     1     -47.042  12.646  18.352  0.00  0.00    +0.000 OA
BRANCH  29  30
ATOM     30  C   UNL     1     -47.636  11.379  18.630  0.00  0.00    +0.000 C 
ATOM     31  F   UNL     1     -46.668  10.397  18.527  0.00  0.00    +0.000 F 
ATOM     32  F   UNL     1     -48.640  11.113  17.715  0.00  0.00    +0.000 F 
ATOM     33  F   UNL     1     -48.151  11.364  19.913  0.00  0.00    +0.000 F 
ENDBRANCH  29  30
ENDBRANCH  19  29
ENDBRANCH   1  18
BRANCH  14  34
ATOM     34  C   UNL     1     -54.413  19.273  15.312  0.00  0.00    +0.000 C 
ATOM     35  O   UNL     1     -54.155  20.402  14.819  0.00  0.00    +0.000 OA
ATOM     36  N   UNL     1     -55.707  19.038  15.871  0.00  0.00    +0.000 N 
ATOM     37  H   UNL     1     -56.382  19.828  15.970  0.00  0.00    +0.000 HD
ATOM     38  H   UNL     1     -56.047  18.073  16.072  0.00  0.00    +0.000 HD
ENDBRANCH  14  34
BRANCH  12  39
ATOM     39  C   UNL     1     -52.525  14.782  14.760  0.00  0.00    +0.000 C 
BRANCH  39  40
ATOM     40  C   UNL     1     -52.832  14.510  13.289  0.00  0.00    +0.000 C 
BRANCH  40  41
ATOM     41  O   UNL     1     -51.814  15.024  12.476  0.00  0.00    +0.000 OA
ATOM     42  H   UNL     1     -51.009  15.090  13.051  0.00  0.00    +0.000 HD
ENDBRANCH  40  41
ENDBRANCH  39  40
ENDBRANCH  12  39
TORSDOF 8
ENDMDL
MODEL 5
REMARK VINA RESULT:    -7.877      3.484      9.140
REMARK INTER + INTRA:         -12.329
REMARK INTER:                 -11.691
REMARK INTRA:                  -0.638
REMARK UNBOUND:                -0.998
REMARK  Name = 
REMARK  9 active torsions:
REMARK  status: ('A' for Active; 'I' for Inactive)
REMARK    1  A    between atoms: C_1  and  N_2
REMARK    2  A    between atoms: N_5  and  C_8
REMARK    3  A    between atoms: C_10  and  N_19
REMARK    4  A    between atoms: C_11  and  O_14
REMARK    5  A    between atoms: O_14  and  C_15
REMARK    6  A    between atoms: N_30  and  C_36
REMARK    7  A    between atoms: C_32  and  C_33
REMARK    8  A    between atoms: C_36  and  C_37
REMARK    9  A    between atoms: C_37  and  O_38
REMARK                            x       y       z     vdW  Elec       q    Type
REMARK                         _______ _______ _______ _____ _____    ______ ____
ROOT
ATOM      1  N   UNL     1     -44.393  15.091  13.857  0.00  0.00    +0.000 N 
ATOM      2  C   UNL     1     -45.516  14.499  14.526  0.00  0.00    +0.000 A 
ATOM      3  N   UNL     1     -46.790  14.830  14.179  0.00  0.00    +0.000 NA
ATOM      4  C   UNL     1     -47.859  14.306  14.832  0.00  0.00    +0.000 A 
ATOM      5  C   UNL     1     -47.663  13.425  15.898  0.00  0.00    +0.000 A 
ATOM      6  C   UNL     1     -48.840  12.758  16.591  0.00  0.00    +0.000 C 
ATOM      7  C   UNL     1     -48.553  12.393  18.066  0.00  0.00    +0.000 C 
ATOM      8  C   UNL     1     -47.158  11.856  18.225  0.00  0.00    +0.000 A 
ATOM      9  C   UNL     1     -46.130  12.185  17.382  0.00  0.00    +0.000 A 
ATOM     10  C   UNL     1     -46.340  13.083  16.233  0.00  0.00    +0.000 A 
ATOM     11  N   UNL     1     -45.304  13.635  15.553  0.00  0.00    +0.000 NA
ATOM     12  N   UNL     1     -45.004  11.558  17.793  0.00  0.00    +0.000 N 
ATOM     13  N   UNL     1     -45.283  10.845  18.877  0.00  0.00    +0.000 NA
ATOM     14  C   UNL     1     -46.587  11.026  19.181  0.00  0.00    +0.000 A 
ATOM     15  H   UNL     1     -43.449  14.955  14.287  0.00  0.00    +0.000 HD
ENDROOT
BRANCH   1  18
ATOM     16  C   UNL     1     -45.680  17.826  11.628  0.00  0.00    +0.000 A 
ATOM     17  C   UNL     1     -45.560  16.932  12.703  0.00  0.00    +0.000 A 
ATOM     18  C   UNL     1     -44.516  15.994  12.746  0.00  0.00    +0.000 A 
ATOM     19  C   UNL     1     -43.605  15.914  11.677  0.00  0.00    +0.000 A 
ATOM     20  C   UNL     1     -43.730  16.810  10.598  0.00  0.00    +0.000 A 
ATOM     21  C   UNL     1     -44.750  17.763  10.582  0.00  0.00    +0.000 A 
BRANCH  16  26
ATOM     22  C   UNL     1     -50.159  21.010  10.546  0.00  0.00    +0.000 C 
ATOM     23  N   UNL     1     -48.942  20.524  11.214  0.00  0.00    +0.000 NA
ATOM     24  C   UNL     1     -47.804  20.567  10.274  0.00  0.00    +0.000 C 
ATOM     25  C   UNL     1     -46.518  20.118  10.972  0.00  0.00    +0.000 C 
ATOM     26  N   UNL     1     -46.729  18.813  11.608  0.00  0.00    +0.000 N 
ATOM     27  C   UNL     1     -47.915  18.660  12.457  0.00  0.00    +0.000 C 
ATOM     28  C   UNL     1     -49.153  19.147  11.703  0.00  0.00    +0.000 C 
ENDBRANCH  16  26
BRANCH  19  29
ATOM     29  O   UNL     1     -42.588  14.944  11.731  0.00  0.00    +0.000 OA
BRANCH  29  30
ATOM     30  C   UNL     1     -41.278  15.144  12.258  0.00  0.00    +0.000 C 
ATOM     31  F   UNL     1     -41.068  14.248  13.290  0.00  0.00    +0.000 F 
ATOM     32  F   UNL     1     -41.154  16.430  12.753  0.00  0.00    +0.000 F 
ATOM     33  F   UNL     1     -40.330  14.923  11.276  0.00  0.00    +0.000 F 
ENDBRANCH  29  30
ENDBRANCH  19  29
ENDBRANCH   1  18
BRANCH  14  34
ATOM     34  C   UNL     1     -47.226  10.400  20.353  0.00  0.00    +0.000 C 
ATOM     35  O   UNL     1     -48.459  10.147  20.315  0.00  0.00    +0.000 OA
ATOM     36  N   UNL     1     -46.476  10.030  21.511  0.00  0.00    +0.000 N 
ATOM     37  H   UNL     1     -46.970   9.663  22.355  0.00  0.00    +0.000 HD
ATOM     38  H   UNL     1     -45.434  10.000  21.499  0.00  0.00    +0.000 HD
ENDBRANCH  14  34
BRANCH  12  39
ATOM     39  C   UNL     1     -43.684  11.546  17.162  0.00  0.00    +0.000 C 
BRANCH  39  40
ATOM     40  C   UNL     1     -42.787  12.631  17.754  0.00  0.00    +0.000 C 
BRANCH  40  41
ATOM     41  O   UNL     1     -41.762  12.958  16.857  0.00  0.00    +0.000 OA
ATOM     42  H   UNL     1     -41.840  13.933  16.692  0.00  0.00    +0.000 HD
ENDBRANCH  40  41
ENDBRANCH  39  40
ENDBRANCH  12  39
TORSDOF 8
ENDMDL
MODEL 6
REMARK VINA RESULT:    -7.843      1.667      2.809
REMARK INTER + INTRA:         -12.280
REMARK INTER:                 -10.859
REMARK INTRA:                  -1.421
REMARK UNBOUND:                -0.998
REMARK  Name = 
REMARK  9 active torsions:
REMARK  status: ('A' for Active; 'I' for Inactive)
REMARK    1  A    between atoms: C_1  and  N_2
REMARK    2  A    between atoms: N_5  and  C_8
REMARK    3  A    between atoms: C_10  and  N_19
REMARK    4  A    between atoms: C_11  and  O_14
REMARK    5  A    between atoms: O_14  and  C_15
REMARK    6  A    between atoms: N_30  and  C_36
REMARK    7  A    between atoms: C_32  and  C_33
REMARK    8  A    between atoms: C_36  and  C_37
REMARK    9  A    between atoms: C_37  and  O_38
REMARK                            x       y       z     vdW  Elec       q    Type
REMARK                         _______ _______ _______ _____ _____    ______ ____
ROOT
ATOM      1  N   UNL     1     -48.344  14.352  17.125  0.00  0.00    +0.000 N 
ATOM      2  C   UNL     1     -47.791  14.491  15.809  0.00  0.00    +0.000 A 
ATOM      3  N   UNL     1     -47.297  13.413  15.139  0.00  0.00    +0.000 NA
ATOM      4  C   UNL     1     -46.737  13.541  13.910  0.00  0.00    +0.000 A 
ATOM      5  C   UNL     1     -46.635  14.801  13.316  0.00  0.00    +0.000 A 
ATOM      6  C   UNL     1     -46.089  14.963  11.907  0.00  0.00    +0.000 C 
ATOM      7  C   UNL     1     -45.434  16.342  11.660  0.00  0.00    +0.000 C 
ATOM      8  C   UNL     1     -46.230  17.439  12.310  0.00  0.00    +0.000 A 
ATOM      9  C   UNL     1     -47.022  17.236  13.409  0.00  0.00    +0.000 A 
ATOM     10  C   UNL     1     -47.163  15.902  14.015  0.00  0.00    +0.000 A 
ATOM     11  N   UNL     1     -47.713  15.725  15.243  0.00  0.00    +0.000 NA
ATOM     12  N   UNL     1     -47.592  18.412  13.764  0.00  0.00    +0.000 N 
ATOM     13  N   UNL     1     -47.180  19.357  12.928  0.00  0.00    +0.000 NA
ATOM     14  C   UNL     1     -46.327  18.798  12.042  0.00  0.00    +0.000 A 
ATOM     15  H   UNL     1     -48.526  15.227  17.668  0.00  0.00    +0.000 HD
ENDROOT
BRANCH   1  18
ATOM     16  C   UNL     1     -49.915  11.263  18.576  0.00  0.00    +0.000 A 
ATOM     17  C   UNL     1     -49.762  12.502  17.934  0.00  0.00    +0.000 A 
ATOM     18  C   UNL     1     -48.493  13.089  17.794  0.00  0.00    +0.000 A 
ATOM     19  C   UNL     1     -47.365  12.453  18.345  0.00  0.00    +0.000 A 
ATOM     20  C   UNL     1     -47.522  11.212  18.991  0.00  0.00    +0.000 A 
ATOM     21  C   UNL     1     -48.783  10.620  19.094  0.00  0.00    +0.000 A 
BRANCH  16  26
ATOM     22  C   UNL     1     -55.289   9.749  18.141  0.00  0.00    +0.000 C 
ATOM     23  N   UNL     1     -53.886   9.743  18.583  0.00  0.00    +0.000 NA
ATOM     24  C   UNL     1     -53.567  11.020  19.251  0.00  0.00    +0.000 C 
ATOM     25  C   UNL     1     -52.126  11.007  19.769  0.00  0.00    +0.000 C 
ATOM     26  N   UNL     1     -51.212  10.647  18.681  0.00  0.00    +0.000 N 
ATOM     27  C   UNL     1     -51.539   9.456  17.890  0.00  0.00    +0.000 C 
ATOM     28  C   UNL     1     -52.994   9.531  17.426  0.00  0.00    +0.000 C 
ENDBRANCH  16  26
BRANCH  19  29
ATOM     29  O   UNL     1     -46.112  13.078  18.218  0.00  0.00    +0.000 OA
BRANCH  29  30
ATOM     30  C   UNL     1     -44.956  12.504  17.612  0.00  0.00    +0.000 C 
ATOM     31  F   UNL     1     -44.314  11.703  18.538  0.00  0.00    +0.000 F 
ATOM     32  F   UNL     1     -44.086  13.500  17.206  0.00  0.00    +0.000 F 
ATOM     33  F   UNL     1     -45.322  11.727  16.528  0.00  0.00    +0.000 F 
ENDBRANCH  29  30
ENDBRANCH  19  29
ENDBRANCH   1  18
BRANCH  14  34
ATOM     34  C   UNL     1     -45.653  19.576  10.985  0.00  0.00    +0.000 C 
ATOM     35  O   UNL     1     -45.699  19.161   9.797  0.00  0.00    +0.000 OA
ATOM     36  N   UNL     1     -44.991  20.810  11.266  0.00  0.00    +0.000 N 
ATOM     37  H   UNL     1     -44.456  21.296  10.512  0.00  0.00    +0.000 HD
ATOM     38  H   UNL     1     -45.126  21.308  12.172  0.00  0.00    +0.000 HD
ENDBRANCH  14  34
BRANCH  12  39
ATOM     39  C   UNL     1     -48.570  18.668  14.821  0.00  0.00    +0.000 C 
BRANCH  39  40
ATOM     40  C   UNL     1     -47.930  19.426  15.983  0.00  0.00    +0.000 C 
BRANCH  40  41
ATOM     41  O   UNL     1     -47.119  18.567  16.736  0.00  0.00    +0.000 OA
ATOM     42  H   UNL     1     -46.956  17.772  16.166  0.00  0.00    +0.000 HD
ENDBRANCH  40  41
ENDBRANCH  39  40
ENDBRANCH  12  39
TORSDOF 8
ENDMDL
MODEL 7
REMARK VINA RESULT:    -7.631      4.298      7.559
REMARK INTER + INTRA:         -11.975
REMARK INTER:                 -10.425
REMARK INTRA:                  -1.550
REMARK UNBOUND:                -0.998
REMARK  Name = 
REMARK  9 active torsions:
REMARK  status: ('A' for Active; 'I' for Inactive)
REMARK    1  A    between atoms: C_1  and  N_2
REMARK    2  A    between atoms: N_5  and  C_8
REMARK    3  A    between atoms: C_10  and  N_19
REMARK    4  A    between atoms: C_11  and  O_14
REMARK    5  A    between atoms: O_14  and  C_15
REMARK    6  A    between atoms: N_30  and  C_36
REMARK    7  A    between atoms: C_32  and  C_33
REMARK    8  A    between atoms: C_36  and  C_37
REMARK    9  A    between atoms: C_37  and  O_38
REMARK                            x       y       z     vdW  Elec       q    Type
REMARK                         _______ _______ _______ _____ _____    ______ ____
ROOT
ATOM      1  N   UNL     1     -47.905  13.586  15.015  0.00  0.00    +0.000 N 
ATOM      2  C   UNL     1     -48.323  14.957  15.043  0.00  0.00    +0.000 A 
ATOM      3  N   UNL     1     -47.436  15.954  15.315  0.00  0.00    +0.000 NA
ATOM      4  C   UNL     1     -47.830  17.252  15.382  0.00  0.00    +0.000 A 
ATOM      5  C   UNL     1     -49.174  17.585  15.194  0.00  0.00    +0.000 A 
ATOM      6  C   UNL     1     -49.627  19.035  15.180  0.00  0.00    +0.000 C 
ATOM      7  C   UNL     1     -51.097  19.219  15.628  0.00  0.00    +0.000 C 
ATOM      8  C   UNL     1     -51.970  18.131  15.067  0.00  0.00    +0.000 A 
ATOM      9  C   UNL     1     -51.497  16.888  14.741  0.00  0.00    +0.000 A 
ATOM     10  C   UNL     1     -50.074  16.544  14.900  0.00  0.00    +0.000 A 
ATOM     11  N   UNL     1     -49.633  15.261  14.846  0.00  0.00    +0.000 NA
ATOM     12  N   UNL     1     -52.521  16.133  14.280  0.00  0.00    +0.000 N 
ATOM     13  N   UNL     1     -53.633  16.858  14.308  0.00  0.00    +0.000 NA
ATOM     14  C   UNL     1     -53.333  18.077  14.809  0.00  0.00    +0.000 A 
ATOM     15  H   UNL     1     -48.651  12.853  14.998  0.00  0.00    +0.000 HD
ENDROOT
BRANCH   1  18
ATOM     16  C   UNL     1     -44.215  13.178  14.441  0.00  0.00    +0.000 A 
ATOM     17  C   UNL     1     -45.552  13.572  14.274  0.00  0.00    +0.000 A 
ATOM     18  C   UNL     1     -46.540  13.168  15.187  0.00  0.00    +0.000 A 
ATOM     19  C   UNL     1     -46.199  12.319  16.256  0.00  0.00    +0.000 A 
ATOM     20  C   UNL     1     -44.858  11.923  16.418  0.00  0.00    +0.000 A 
ATOM     21  C   UNL     1     -43.876  12.359  15.526  0.00  0.00    +0.000 A 
BRANCH  16  26
ATOM     22  C   UNL     1     -40.502  16.059  11.394  0.00  0.00    +0.000 C 
ATOM     23  N   UNL     1     -41.276  14.917  11.907  0.00  0.00    +0.000 NA
ATOM     24  C   UNL     1     -42.714  15.134  11.653  0.00  0.00    +0.000 C 
ATOM     25  C   UNL     1     -43.528  13.928  12.129  0.00  0.00    +0.000 C 
ATOM     26  N   UNL     1     -43.198  13.628  13.525  0.00  0.00    +0.000 N 
ATOM     27  C   UNL     1     -41.778  13.525  13.877  0.00  0.00    +0.000 C 
ATOM     28  C   UNL     1     -41.029  14.751  13.353  0.00  0.00    +0.000 C 
ENDBRANCH  16  26
BRANCH  19  29
ATOM     29  O   UNL     1     -47.214  11.905  17.136  0.00  0.00    +0.000 OA
BRANCH  29  30
ATOM     30  C   UNL     1     -47.514  12.501  18.396  0.00  0.00    +0.000 C 
ATOM     31  F   UNL     1     -48.367  13.570  18.195  0.00  0.00    +0.000 F 
ATOM     32  F   UNL     1     -46.355  12.962  18.994  0.00  0.00    +0.000 F 
ATOM     33  F   UNL     1     -48.137  11.583  19.222  0.00  0.00    +0.000 F 
ENDBRANCH  29  30
ENDBRANCH  19  29
ENDBRANCH   1  18
BRANCH  14  34
ATOM     34  C   UNL     1     -54.348  19.128  15.009  0.00  0.00    +0.000 C 
ATOM     35  O   UNL     1     -54.915  19.224  16.129  0.00  0.00    +0.000 OA
ATOM     36  N   UNL     1     -54.670  20.068  13.983  0.00  0.00    +0.000 N 
ATOM     37  H   UNL     1     -55.449  20.749  14.128  0.00  0.00    +0.000 HD
ATOM     38  H   UNL     1     -54.071  20.179  13.138  0.00  0.00    +0.000 HD
ENDBRANCH  14  34
BRANCH  12  39
ATOM     39  C   UNL     1     -52.483  14.773  13.742  0.00  0.00    +0.000 C 
BRANCH  39  40
ATOM     40  C   UNL     1     -53.009  13.768  14.764  0.00  0.00    +0.000 C 
BRANCH  40  41
ATOM     41  O   UNL     1     -52.111  13.645  15.832  0.00  0.00    +0.000 OA
ATOM     42  H   UNL     1     -52.002  14.556  16.207  0.00  0.00    +0.000 HD
ENDBRANCH  40  41
ENDBRANCH  39  40
ENDBRANCH  12  39
TORSDOF 8
ENDMDL
MODEL 8
REMARK VINA RESULT:    -7.502      3.170      4.944
REMARK INTER + INTRA:         -11.790
REMARK INTER:                 -11.365
REMARK INTRA:                  -0.426
REMARK UNBOUND:                -0.998
REMARK  Name = 
REMARK  9 active torsions:
REMARK  status: ('A' for Active; 'I' for Inactive)
REMARK    1  A    between atoms: C_1  and  N_2
REMARK    2  A    between atoms: N_5  and  C_8
REMARK    3  A    between atoms: C_10  and  N_19
REMARK    4  A    between atoms: C_11  and  O_14
REMARK    5  A    between atoms: O_14  and  C_15
REMARK    6  A    between atoms: N_30  and  C_36
REMARK    7  A    between atoms: C_32  and  C_33
REMARK    8  A    between atoms: C_36  and  C_37
REMARK    9  A    between atoms: C_37  and  O_38
REMARK                            x       y       z     vdW  Elec       q    Type
REMARK                         _______ _______ _______ _____ _____    ______ ____
ROOT
ATOM      1  N   UNL     1     -45.396  15.482  13.498  0.00  0.00    +0.000 N 
ATOM      2  C   UNL     1     -46.691  16.092  13.596  0.00  0.00    +0.000 A 
ATOM      3  N   UNL     1     -47.592  15.673  14.526  0.00  0.00    +0.000 NA
ATOM      4  C   UNL     1     -48.834  16.217  14.602  0.00  0.00    +0.000 A 
ATOM      5  C   UNL     1     -49.218  17.211  13.698  0.00  0.00    +0.000 A 
ATOM      6  C   UNL     1     -50.570  17.895  13.813  0.00  0.00    +0.000 C 
ATOM      7  C   UNL     1     -51.104  18.423  12.460  0.00  0.00    +0.000 C 
ATOM      8  C   UNL     1     -49.997  19.032  11.646  0.00  0.00    +0.000 A 
ATOM      9  C   UNL     1     -48.684  18.660  11.774  0.00  0.00    +0.000 A 
ATOM     10  C   UNL     1     -48.269  17.641  12.753  0.00  0.00    +0.000 A 
ATOM     11  N   UNL     1     -47.040  17.066  12.714  0.00  0.00    +0.000 NA
ATOM     12  N   UNL     1     -47.937  19.373  10.900  0.00  0.00    +0.000 N 
ATOM     13  N   UNL     1     -48.736  20.183  10.215  0.00  0.00    +0.000 NA
ATOM     14  C   UNL     1     -50.005  19.979  10.631  0.00  0.00    +0.000 A 
ATOM     15  H   UNL     1     -44.822  15.701  12.651  0.00  0.00    +0.000 HD
ENDROOT
BRANCH   1  18
ATOM     16  C   UNL     1     -45.290  13.022  16.335  0.00  0.00    +0.000 A 
ATOM     17  C   UNL     1     -45.736  14.024  15.458  0.00  0.00    +0.000 A 
ATOM     18  C   UNL     1     -44.926  14.465  14.397  0.00  0.00    +0.000 A 
ATOM     19  C   UNL     1     -43.634  13.932  14.237  0.00  0.00    +0.000 A 
ATOM     20  C   UNL     1     -43.189  12.930  15.120  0.00  0.00    +0.000 A 
ATOM     21  C   UNL     1     -44.014  12.474  16.149  0.00  0.00    +0.000 A 
BRANCH  16  26
ATOM     22  C   UNL     1     -48.584  10.094  19.790  0.00  0.00    +0.000 C 
ATOM     23  N   UNL     1     -47.806  11.220  19.251  0.00  0.00    +0.000 NA
ATOM     24  C   UNL     1     -48.341  11.612  17.932  0.00  0.00    +0.000 C 
ATOM     25  C   UNL     1     -47.579  12.821  17.384  0.00  0.00    +0.000 C 
ATOM     26  N   UNL     1     -46.138  12.545  17.395  0.00  0.00    +0.000 N 
ATOM     27  C   UNL     1     -45.559  12.029  18.640  0.00  0.00    +0.000 C 
ATOM     28  C   UNL     1     -46.384  10.840  19.136  0.00  0.00    +0.000 C 
ENDBRANCH  16  26
BRANCH  19  29
ATOM     29  O   UNL     1     -42.834  14.415  13.186  0.00  0.00    +0.000 OA
BRANCH  29  30
ATOM     30  C   UNL     1     -42.649  13.777  11.924  0.00  0.00    +0.000 C 
ATOM     31  F   UNL     1     -42.672  12.407  12.105  0.00  0.00    +0.000 F 
ATOM     32  F   UNL     1     -41.426  14.134  11.384  0.00  0.00    +0.000 F 
ATOM     33  F   UNL     1     -43.668  14.130  11.058  0.00  0.00    +0.000 F 
ENDBRANCH  29  30
ENDBRANCH  19  29
ENDBRANCH   1  18
BRANCH  14  34
ATOM     34  C   UNL     1     -51.157  20.695  10.053  0.00  0.00    +0.000 C 
ATOM     35  O   UNL     1     -51.970  21.269  10.825  0.00  0.00    +0.000 OA
ATOM     36  N   UNL     1     -51.350  20.794   8.641  0.00  0.00    +0.000 N 
ATOM     37  H   UNL     1     -52.217  21.239   8.265  0.00  0.00    +0.000 HD
ATOM     38  H   UNL     1     -50.594  20.546   7.969  0.00  0.00    +0.000 HD
ENDBRANCH  14  34
BRANCH  12  39
ATOM     39  C   UNL     1     -46.484  19.376  10.732  0.00  0.00    +0.000 C 
BRANCH  39  40
ATOM     40  C   UNL     1     -45.838  20.456  11.598  0.00  0.00    +0.000 C 
BRANCH  40  41
ATOM     41  O   UNL     1     -44.746  21.026  10.930  0.00  0.00    +0.000 OA
ATOM     42  H   UNL     1     -44.258  20.274  10.508  0.00  0.00    +0.000 HD
ENDBRANCH  40  41
ENDBRANCH  39  40
ENDBRANCH  12  39
TORSDOF 8
ENDMDL
MODEL 9
REMARK VINA RESULT:    -7.454      4.905      9.299
REMARK INTER + INTRA:         -11.721
REMARK INTER:                 -10.049
REMARK INTRA:                  -1.672
REMARK UNBOUND:                -0.998
REMARK  Name = 
REMARK  9 active torsions:
REMARK  status: ('A' for Active; 'I' for Inactive)
REMARK    1  A    between atoms: C_1  and  N_2
REMARK    2  A    between atoms: N_5  and  C_8
REMARK    3  A    between atoms: C_10  and  N_19
REMARK    4  A    between atoms: C_11  and  O_14
REMARK    5  A    between atoms: O_14  and  C_15
REMARK    6  A    between atoms: N_30  and  C_36
REMARK    7  A    between atoms: C_32  and  C_33
REMARK    8  A    between atoms: C_36  and  C_37
REMARK    9  A    between atoms: C_37  and  O_38
REMARK                            x       y       z     vdW  Elec       q    Type
REMARK                         _______ _______ _______ _____ _____    ______ ____
ROOT
ATOM      1  N   UNL     1     -48.459  17.761  13.426  0.00  0.00    +0.000 N 
ATOM      2  C   UNL     1     -47.507  16.690  13.496  0.00  0.00    +0.000 A 
ATOM      3  N   UNL     1     -46.948  16.177  12.365  0.00  0.00    +0.000 NA
ATOM      4  C   UNL     1     -46.076  15.138  12.418  0.00  0.00    +0.000 A 
ATOM      5  C   UNL     1     -45.753  14.557  13.647  0.00  0.00    +0.000 A 
ATOM      6  C   UNL     1     -44.717  13.449  13.743  0.00  0.00    +0.000 C 
ATOM      7  C   UNL     1     -44.947  12.501  14.943  0.00  0.00    +0.000 C 
ATOM      8  C   UNL     1     -45.370  13.271  16.163  0.00  0.00    +0.000 A 
ATOM      9  C   UNL     1     -46.021  14.475  16.098  0.00  0.00    +0.000 A 
ATOM     10  C   UNL     1     -46.329  15.110  14.806  0.00  0.00    +0.000 A 
ATOM     11  N   UNL     1     -47.197  16.148  14.703  0.00  0.00    +0.000 NA
ATOM     12  N   UNL     1     -46.279  14.905  17.355  0.00  0.00    +0.000 N 
ATOM     13  N   UNL     1     -45.817  14.008  18.217  0.00  0.00    +0.000 NA
ATOM     14  C   UNL     1     -45.278  12.985  17.519  0.00  0.00    +0.000 A 
ATOM     15  H   UNL     1     -48.999  17.984  14.294  0.00  0.00    +0.000 HD
ENDROOT
BRANCH   1  18
ATOM     16  C   UNL     1     -50.374  18.678  10.327  0.00  0.00    +0.000 A 
ATOM     17  C   UNL     1     -49.997  18.035  11.518  0.00  0.00    +0.000 A 
ATOM     18  C   UNL     1     -48.830  18.416  12.202  0.00  0.00    +0.000 A 
ATOM     19  C   UNL     1     -48.002  19.419  11.666  0.00  0.00    +0.000 A 
ATOM     20  C   UNL     1     -48.381  20.058  10.471  0.00  0.00    +0.000 A 
ATOM     21  C   UNL     1     -49.561  19.698   9.817  0.00  0.00    +0.000 A 
BRANCH  16  26
ATOM     22  C   UNL     1     -55.021  18.422   7.211  0.00  0.00    +0.000 C 
ATOM     23  N   UNL     1     -53.959  18.006   8.140  0.00  0.00    +0.000 NA
ATOM     24  C   UNL     1     -53.951  18.893   9.321  0.00  0.00    +0.000 C 
ATOM     25  C   UNL     1     -52.889  18.437  10.324  0.00  0.00    +0.000 C 
ATOM     26  N   UNL     1     -51.592  18.313   9.651  0.00  0.00    +0.000 N 
ATOM     27  C   UNL     1     -51.551  17.549   8.399  0.00  0.00    +0.000 C 
ATOM     28  C   UNL     1     -52.650  18.045   7.459  0.00  0.00    +0.000 C 
ENDBRANCH  16  26
BRANCH  19  29
ATOM     29  O   UNL     1     -46.824  19.757  12.355  0.00  0.00    +0.000 OA
BRANCH  29  30
ATOM     30  C   UNL     1     -45.496  19.514  11.898  0.00  0.00    +0.000 C 
ATOM     31  F   UNL     1     -44.730  19.069  12.960  0.00  0.00    +0.000 F 
ATOM     32  F   UNL     1     -44.939  20.681  11.406  0.00  0.00    +0.000 F 
ATOM     33  F   UNL     1     -45.500  18.542  10.914  0.00  0.00    +0.000 F 
ENDBRANCH  29  30
ENDBRANCH  19  29
ENDBRANCH   1  18
BRANCH  14  34
ATOM     34  C   UNL     1     -44.698  11.795  18.168  0.00  0.00    +0.000 C 
ATOM     35  O   UNL     1     -43.463  11.577  18.055  0.00  0.00    +0.000 OA
ATOM     36  N   UNL     1     -45.490  10.909  18.961  0.00  0.00    +0.000 N 
ATOM     37  H   UNL     1     -45.068  10.033  19.342  0.00  0.00    +0.000 HD
ATOM     38  H   UNL     1     -46.449  11.170  19.277  0.00  0.00    +0.000 HD
ENDBRANCH  14  34
BRANCH  12  39
ATOM     39  C   UNL     1     -46.881  16.168  17.781  0.00  0.00    +0.000 C 
BRANCH  39  40
ATOM     40  C   UNL     1     -48.406  16.080  17.756  0.00  0.00    +0.000 C 
BRANCH  40  41
ATOM     41  O   UNL     1     -48.938  17.087  16.940  0.00  0.00    +0.000 OA
ATOM     42  H   UNL     1     -49.602  16.643  16.353  0.00  0.00    +0.000 HD
ENDBRANCH  40  41
ENDBRANCH  39  40
ENDBRANCH  12  39
TORSDOF 8
ENDMDL
