MODEL 1
REMARK VINA RESULT:   -10.174      0.000      0.000
REMARK INTER + INTRA:         -15.716
REMARK INTER:                 -14.933
REMARK INTRA:                  -0.783
REMARK UNBOUND:                -0.783
REMARK  8 active torsions:
REMARK  status: ('A' for Active; 'I' for Inactive)
REMARK    1  A    between atoms: N_2  and  C_3 
REMARK    2  A    between atoms: N_2  and  S_32 
REMARK    3  A    between atoms: C_7  and  C_8 
REMARK    4  A    between atoms: C_8  and  N_9 
REMARK    5  A    between atoms: N_9  and  C_10 
REMARK    6  A    between atoms: C_12  and  N_13 
REMARK    7  A    between atoms: N_13  and  C_14 
REMARK    8  A    between atoms: C_26  and  C_27 
ROOT
ATOM      1  C   UNL d   1     -43.632  12.582  15.223  0.00  0.00     0.159 A 
ATOM      2  N   UNL d   1     -44.231  12.064  16.340  0.00  0.00    -0.044 NA
ATOM      3  C   UNL d   1     -43.541  12.088  17.518  0.00  0.00     0.728 A 
ATOM      4  N   UNL d   1     -42.283  12.600  17.660  0.00  0.00    -0.074 NA
ATOM      5  C   UNL d   1     -41.671  13.121  16.556  0.00  0.00     0.156 A 
ATOM      6  C   UNL d   1     -42.326  13.128  15.306  0.00  0.00     0.112 A 
ENDROOT
BRANCH   1   7
ATOM      7  N   UNL d   1     -44.324  12.560  14.041  0.00  0.00    -0.369 N 
ATOM      8  H   UNL d   1     -43.867  12.272  13.200  0.00  0.00     0.161 HD
BRANCH   7   9
ATOM      9  C   UNL d   1     -45.740  12.955  14.012  0.00  0.00     0.160 C 
BRANCH   9  10
ATOM     10  C   UNL d   1     -45.902  14.425  14.155  0.00  0.00    -0.038 A 
ATOM     11  C   UNL d   1     -46.575  14.954  15.272  0.00  0.00     0.009 A 
ATOM     12  C   UNL d   1     -46.726  16.345  15.408  0.00  0.00     0.003 A 
ATOM     13  C   UNL d   1     -46.211  17.208  14.428  0.00  0.00     0.030 A 
ATOM     14  C   UNL d   1     -45.539  16.684  13.307  0.00  0.00     0.044 A 
ATOM     15  C   UNL d   1     -45.386  15.290  13.172  0.00  0.00     0.039 A 
BRANCH  14  16
ATOM     16  N   UNL d   1     -45.035  17.526  12.352  0.00  0.00    -0.281 N 
ATOM     17  C   UNL d   1     -43.592  17.543  12.075  0.00  0.00     0.169 C 
BRANCH  16  18
ATOM     18  S   UNL d   1     -46.031  18.501  11.528  0.00  0.00     0.228 S 
ATOM     19  O   UNL d   1     -45.496  18.636  10.184  0.00  0.00    -0.206 OA
ATOM     20  O   UNL d   1     -47.354  17.903  11.560  0.00  0.00    -0.206 OA
ATOM     21  C   UNL d   1     -46.112  20.119  12.282  0.00  0.00     0.186 C 
ENDBRANCH  16  18
ENDBRANCH  14  16
ENDBRANCH   9  10
ENDBRANCH   7   9
ENDBRANCH   1   7
BRANCH   6  22
ATOM     22  C   UNL d   1     -41.636  13.704  14.118  0.00  0.00     0.422 C 
ATOM     23  F   UNL d   1     -40.362  14.071  14.462  0.00  0.00    -0.166 F 
ATOM     24  F   UNL d   1     -42.327  14.805  13.678  0.00  0.00    -0.166 F 
ATOM     25  F   UNL d   1     -41.588  12.766  13.119  0.00  0.00    -0.166 F 
ENDBRANCH   6  22
BRANCH   3  26
ATOM     26  N   UNL d   1     -44.149  11.566  18.627  0.00  0.00    -0.188 N 
ATOM     27  H   UNL d   1     -43.599  11.274  19.407  0.00  0.00     0.184 HD
BRANCH  26  28
ATOM     28  C   UNL d   1     -45.485  11.447  18.664  0.00  0.00     0.050 A 
ATOM     29  C   UNL d   1     -46.307  12.313  17.897  0.00  0.00     0.039 A 
ATOM     30  C   UNL d   1     -47.720  12.199  17.926  0.00  0.00    -0.023 A 
ATOM     31  C   UNL d   1     -48.294  11.211  18.724  0.00  0.00     0.040 A 
ATOM     32  C   UNL d   1     -48.834  12.960  17.234  0.00  0.00     0.162 A 
ATOM     33  C   UNL d   1     -47.502  10.333  19.501  0.00  0.00     0.020 A 
ATOM     34  C   UNL d   1     -49.743  11.233  18.631  0.00  0.00     0.252 A 
ATOM     35  C   UNL d   1     -46.095  10.453  19.470  0.00  0.00     0.031 A 
ATOM     36  O   UNL d   1     -50.533  10.510  19.194  0.00  0.00    -0.268 OA
ATOM     37  N   UNL d   1     -50.067  12.283  17.737  0.00  0.00    -0.353 N 
ATOM     38  H   UNL d   1     -50.999  12.537  17.475  0.00  0.00     0.163 HD
ENDBRANCH  26  28
ENDBRANCH   3  26
TORSDOF 8
ENDMDL
MODEL 2
REMARK VINA RESULT:    -9.728      3.588      6.520
REMARK INTER + INTRA:         -15.061
REMARK INTER:                 -13.999
REMARK INTRA:                  -1.062
REMARK UNBOUND:                -0.783
REMARK  8 active torsions:
REMARK  status: ('A' for Active; 'I' for Inactive)
REMARK    1  A    between atoms: N_2  and  C_3 
REMARK    2  A    between atoms: N_2  and  S_32 
REMARK    3  A    between atoms: C_7  and  C_8 
REMARK    4  A    between atoms: C_8  and  N_9 
REMARK    5  A    between atoms: N_9  and  C_10 
REMARK    6  A    between atoms: C_12  and  N_13 
REMARK    7  A    between atoms: N_13  and  C_14 
REMARK    8  A    between atoms: C_26  and  C_27 
ROOT
ATOM      1  C   UNL d   1     -46.786  12.156  18.409  0.00  0.00     0.159 A 
ATOM      2  N   UNL d   1     -47.449  12.937  17.502  0.00  0.00    -0.044 NA
ATOM      3  C   UNL d   1     -48.807  12.822  17.414  0.00  0.00     0.728 A 
ATOM      4  N   UNL d   1     -49.556  11.974  18.178  0.00  0.00    -0.074 NA
ATOM      5  C   UNL d   1     -48.911  11.187  19.088  0.00  0.00     0.156 A 
ATOM      6  C   UNL d   1     -47.508  11.254  19.231  0.00  0.00     0.112 A 
ENDROOT
BRANCH   1   7
ATOM      7  N   UNL d   1     -45.424  12.271  18.498  0.00  0.00    -0.369 N 
ATOM      8  H   UNL d   1     -45.020  12.973  19.084  0.00  0.00     0.161 HD
BRANCH   7   9
ATOM      9  C   UNL d   1     -44.559  11.359  17.736  0.00  0.00     0.160 C 
BRANCH   9  10
ATOM     10  C   UNL d   1     -43.545  12.101  16.942  0.00  0.00    -0.038 A 
ATOM     11  C   UNL d   1     -42.467  12.730  17.591  0.00  0.00     0.009 A 
ATOM     12  C   UNL d   1     -41.507  13.431  16.841  0.00  0.00     0.003 A 
ATOM     13  C   UNL d   1     -41.625  13.508  15.443  0.00  0.00     0.030 A 
ATOM     14  C   UNL d   1     -42.703  12.883  14.790  0.00  0.00     0.044 A 
ATOM     15  C   UNL d   1     -43.664  12.178  15.543  0.00  0.00     0.039 A 
BRANCH  14  16
ATOM     16  N   UNL d   1     -42.817  12.957  13.428  0.00  0.00    -0.281 N 
ATOM     17  C   UNL d   1     -42.595  11.759  12.605  0.00  0.00     0.169 C 
BRANCH  16  18
ATOM     18  S   UNL d   1     -43.200  14.364  12.724  0.00  0.00     0.228 S 
ATOM     19  O   UNL d   1     -43.754  14.062  11.416  0.00  0.00    -0.206 OA
ATOM     20  O   UNL d   1     -44.137  15.049  13.598  0.00  0.00    -0.206 OA
ATOM     21  C   UNL d   1     -41.751  15.390  12.515  0.00  0.00     0.186 C 
ENDBRANCH  16  18
ENDBRANCH  14  16
ENDBRANCH   9  10
ENDBRANCH   7   9
ENDBRANCH   1   7
BRANCH   6  22
ATOM     22  C   UNL d   1     -46.830  10.385  20.233  0.00  0.00     0.422 C 
ATOM     23  F   UNL d   1     -47.768   9.677  20.936  0.00  0.00    -0.166 F 
ATOM     24  F   UNL d   1     -46.104  11.166  21.097  0.00  0.00    -0.166 F 
ATOM     25  F   UNL d   1     -45.989   9.515  19.588  0.00  0.00    -0.166 F 
ENDBRANCH   6  22
BRANCH   3  26
ATOM     26  N   UNL d   1     -49.459  13.607  16.502  0.00  0.00    -0.188 N 
ATOM     27  H   UNL d   1     -50.410  13.416  16.269  0.00  0.00     0.184 HD
BRANCH  26  28
ATOM     28  C   UNL d   1     -48.818  14.634  15.924  0.00  0.00     0.050 A 
ATOM     29  C   UNL d   1     -48.745  15.895  16.573  0.00  0.00     0.039 A 
ATOM     30  C   UNL d   1     -48.070  16.988  15.974  0.00  0.00    -0.023 A 
ATOM     31  C   UNL d   1     -47.471  16.804  14.729  0.00  0.00     0.040 A 
ATOM     32  C   UNL d   1     -47.830  18.421  16.411  0.00  0.00     0.162 A 
ATOM     33  C   UNL d   1     -47.527  15.560  14.057  0.00  0.00     0.020 A 
ATOM     34  C   UNL d   1     -46.823  18.020  14.269  0.00  0.00     0.252 A 
ATOM     35  C   UNL d   1     -48.202  14.474  14.657  0.00  0.00     0.031 A 
ATOM     36  O   UNL d   1     -46.217  18.192  13.237  0.00  0.00    -0.268 OA
ATOM     37  N   UNL d   1     -47.039  18.990  15.278  0.00  0.00    -0.353 N 
ATOM     38  H   UNL d   1     -46.705  19.933  15.240  0.00  0.00     0.163 HD
ENDBRANCH  26  28
ENDBRANCH   3  26
TORSDOF 8
ENDMDL
MODEL 3
REMARK VINA RESULT:    -9.529      2.472      3.362
REMARK INTER + INTRA:         -14.768
REMARK INTER:                 -13.990
REMARK INTRA:                  -0.778
REMARK UNBOUND:                -0.783
REMARK  8 active torsions:
REMARK  status: ('A' for Active; 'I' for Inactive)
REMARK    1  A    between atoms: N_2  and  C_3 
REMARK    2  A    between atoms: N_2  and  S_32 
REMARK    3  A    between atoms: C_7  and  C_8 
REMARK    4  A    between atoms: C_8  and  N_9 
REMARK    5  A    between atoms: N_9  and  C_10 
REMARK    6  A    between atoms: C_12  and  N_13 
REMARK    7  A    between atoms: N_13  and  C_14 
REMARK    8  A    between atoms: C_26  and  C_27 
ROOT
ATOM      1  C   UNL d   1     -42.707  13.438  15.043  0.00  0.00     0.159 A 
ATOM      2  N   UNL d   1     -44.005  13.098  15.310  0.00  0.00    -0.044 NA
ATOM      3  C   UNL d   1     -44.317  12.657  16.564  0.00  0.00     0.728 A 
ATOM      4  N   UNL d   1     -43.413  12.533  17.580  0.00  0.00    -0.074 NA
ATOM      5  C   UNL d   1     -42.114  12.869  17.331  0.00  0.00     0.156 A 
ATOM      6  C   UNL d   1     -41.721  13.331  16.056  0.00  0.00     0.112 A 
ENDROOT
BRANCH   1   7
ATOM      7  N   UNL d   1     -42.393  13.881  13.785  0.00  0.00    -0.369 N 
ATOM      8  H   UNL d   1     -41.501  14.296  13.610  0.00  0.00     0.161 HD
BRANCH   7   9
ATOM      9  C   UNL d   1     -43.369  13.741  12.693  0.00  0.00     0.160 C 
BRANCH   9  10
ATOM     10  C   UNL d   1     -43.848  15.064  12.214  0.00  0.00    -0.038 A 
ATOM     11  C   UNL d   1     -43.383  15.580  10.991  0.00  0.00     0.009 A 
ATOM     12  C   UNL d   1     -43.837  16.830  10.537  0.00  0.00     0.003 A 
ATOM     13  C   UNL d   1     -44.753  17.568  11.306  0.00  0.00     0.030 A 
ATOM     14  C   UNL d   1     -45.219  17.057  12.531  0.00  0.00     0.044 A 
ATOM     15  C   UNL d   1     -44.765  15.802  12.985  0.00  0.00     0.039 A 
BRANCH  14  16
ATOM     16  N   UNL d   1     -46.113  17.776  13.279  0.00  0.00    -0.281 N 
ATOM     17  C   UNL d   1     -46.365  17.404  14.679  0.00  0.00     0.169 C 
BRANCH  16  18
ATOM     18  S   UNL d   1     -46.888  19.036  12.623  0.00  0.00     0.228 S 
ATOM     19  O   UNL d   1     -45.905  20.076  12.379  0.00  0.00    -0.206 OA
ATOM     20  O   UNL d   1     -47.537  18.566  11.411  0.00  0.00    -0.206 OA
ATOM     21  C   UNL d   1     -48.136  19.669  13.735  0.00  0.00     0.186 C 
ENDBRANCH  16  18
ENDBRANCH  14  16
ENDBRANCH   9  10
ENDBRANCH   7   9
ENDBRANCH   1   7
BRANCH   6  22
ATOM     22  C   UNL d   1     -40.297  13.691  15.812  0.00  0.00     0.422 C 
ATOM     23  F   UNL d   1     -40.234  14.866  15.111  0.00  0.00    -0.166 F 
ATOM     24  F   UNL d   1     -39.691  12.694  15.090  0.00  0.00    -0.166 F 
ATOM     25  F   UNL d   1     -39.652  13.840  17.013  0.00  0.00    -0.166 F 
ENDBRANCH   6  22
BRANCH   3  26
ATOM     26  N   UNL d   1     -45.618  12.318  16.819  0.00  0.00    -0.188 N 
ATOM     27  H   UNL d   1     -45.836  11.416  17.188  0.00  0.00     0.184 HD
BRANCH  26  28
ATOM     28  C   UNL d   1     -46.600  13.199  16.573  0.00  0.00     0.050 A 
ATOM     29  C   UNL d   1     -47.267  13.203  15.320  0.00  0.00     0.039 A 
ATOM     30  C   UNL d   1     -48.306  14.127  15.047  0.00  0.00    -0.023 A 
ATOM     31  C   UNL d   1     -48.669  15.037  16.038  0.00  0.00     0.040 A 
ATOM     32  C   UNL d   1     -49.184  14.370  13.834  0.00  0.00     0.162 A 
ATOM     33  C   UNL d   1     -48.022  15.060  17.297  0.00  0.00     0.020 A 
ATOM     34  C   UNL d   1     -49.749  15.901  15.593  0.00  0.00     0.252 A 
ATOM     35  C   UNL d   1     -46.986  14.138  17.563  0.00  0.00     0.031 A 
ATOM     36  O   UNL d   1     -50.290  16.790  16.210  0.00  0.00    -0.268 OA
ATOM     37  N   UNL d   1     -50.057  15.501  14.270  0.00  0.00    -0.353 N 
ATOM     38  H   UNL d   1     -50.767  15.918  13.702  0.00  0.00     0.163 HD
ENDBRANCH  26  28
ENDBRANCH   3  26
TORSDOF 8
ENDMDL
MODEL 4
REMARK VINA RESULT:    -9.490      2.319      3.012
REMARK INTER + INTRA:         -14.711
REMARK INTER:                 -13.611
REMARK INTRA:                  -1.099
REMARK UNBOUND:                -0.783
REMARK  8 active torsions:
REMARK  status: ('A' for Active; 'I' for Inactive)
REMARK    1  A    between atoms: N_2  and  C_3 
REMARK    2  A    between atoms: N_2  and  S_32 
REMARK    3  A    between atoms: C_7  and  C_8 
REMARK    4  A    between atoms: C_8  and  N_9 
REMARK    5  A    between atoms: N_9  and  C_10 
REMARK    6  A    between atoms: C_12  and  N_13 
REMARK    7  A    between atoms: N_13  and  C_14 
REMARK    8  A    between atoms: C_26  and  C_27 
ROOT
ATOM      1  C   UNL d   1     -42.763  13.151  15.376  0.00  0.00     0.159 A 
ATOM      2  N   UNL d   1     -44.038  12.926  15.819  0.00  0.00    -0.044 NA
ATOM      3  C   UNL d   1     -44.239  12.748  17.157  0.00  0.00     0.728 A 
ATOM      4  N   UNL d   1     -43.245  12.781  18.093  0.00  0.00    -0.074 NA
ATOM      5  C   UNL d   1     -41.967  13.006  17.669  0.00  0.00     0.156 A 
ATOM      6  C   UNL d   1     -41.687  13.197  16.298  0.00  0.00     0.112 A 
ENDROOT
BRANCH   1   7
ATOM      7  N   UNL d   1     -42.560  13.331  14.033  0.00  0.00    -0.369 N 
ATOM      8  H   UNL d   1     -41.694  13.707  13.704  0.00  0.00     0.161 HD
BRANCH   7   9
ATOM      9  C   UNL d   1     -43.616  12.966  13.076  0.00  0.00     0.160 C 
BRANCH   9  10
ATOM     10  C   UNL d   1     -44.741  13.936  13.106  0.00  0.00    -0.038 A 
ATOM     11  C   UNL d   1     -46.049  13.487  13.365  0.00  0.00     0.009 A 
ATOM     12  C   UNL d   1     -47.114  14.403  13.395  0.00  0.00     0.003 A 
ATOM     13  C   UNL d   1     -46.875  15.768  13.163  0.00  0.00     0.030 A 
ATOM     14  C   UNL d   1     -45.569  16.222  12.901  0.00  0.00     0.044 A 
ATOM     15  C   UNL d   1     -44.501  15.302  12.873  0.00  0.00     0.039 A 
BRANCH  14  16
ATOM     16  N   UNL d   1     -45.336  17.552  12.676  0.00  0.00    -0.281 N 
ATOM     17  C   UNL d   1     -44.034  17.992  12.155  0.00  0.00     0.169 C 
BRANCH  16  18
ATOM     18  S   UNL d   1     -46.497  18.639  12.980  0.00  0.00     0.228 S 
ATOM     19  O   UNL d   1     -47.115  18.276  14.244  0.00  0.00    -0.206 OA
ATOM     20  O   UNL d   1     -45.871  19.950  13.004  0.00  0.00    -0.206 OA
ATOM     21  C   UNL d   1     -47.744  18.619  11.700  0.00  0.00     0.186 C 
ENDBRANCH  16  18
ENDBRANCH  14  16
ENDBRANCH   9  10
ENDBRANCH   7   9
ENDBRANCH   1   7
BRANCH   6  22
ATOM     22  C   UNL d   1     -40.284  13.440  15.863  0.00  0.00     0.422 C 
ATOM     23  F   UNL d   1     -39.479  13.573  16.963  0.00  0.00    -0.166 F 
ATOM     24  F   UNL d   1     -40.231  14.590  15.115  0.00  0.00    -0.166 F 
ATOM     25  F   UNL d   1     -39.851  12.383  15.104  0.00  0.00    -0.166 F 
ENDBRANCH   6  22
BRANCH   3  26
ATOM     26  N   UNL d   1     -45.518  12.522  17.589  0.00  0.00    -0.188 N 
ATOM     27  H   UNL d   1     -45.734  11.690  18.097  0.00  0.00     0.184 HD
BRANCH  26  28
ATOM     28  C   UNL d   1     -46.480  13.420  17.329  0.00  0.00     0.050 A 
ATOM     29  C   UNL d   1     -46.238  14.807  17.508  0.00  0.00     0.039 A 
ATOM     30  C   UNL d   1     -47.245  15.767  17.237  0.00  0.00    -0.023 A 
ATOM     31  C   UNL d   1     -48.486  15.324  16.783  0.00  0.00     0.040 A 
ATOM     32  C   UNL d   1     -47.285  17.281  17.331  0.00  0.00     0.162 A 
ATOM     33  C   UNL d   1     -48.759  13.948  16.595  0.00  0.00     0.020 A 
ATOM     34  C   UNL d   1     -49.392  16.436  16.551  0.00  0.00     0.252 A 
ATOM     35  C   UNL d   1     -47.752  12.996  16.869  0.00  0.00     0.031 A 
ATOM     36  O   UNL d   1     -50.535  16.391  16.158  0.00  0.00    -0.268 OA
ATOM     37  N   UNL d   1     -48.671  17.610  16.881  0.00  0.00    -0.353 N 
ATOM     38  H   UNL d   1     -49.040  18.538  16.819  0.00  0.00     0.163 HD
ENDBRANCH  26  28
ENDBRANCH   3  26
TORSDOF 8
ENDMDL
MODEL 5
REMARK VINA RESULT:    -9.475      3.624      6.507
REMARK INTER + INTRA:         -14.690
REMARK INTER:                 -13.859
REMARK INTRA:                  -0.830
REMARK UNBOUND:                -0.783
REMARK  8 active torsions:
REMARK  status: ('A' for Active; 'I' for Inactive)
REMARK    1  A    between atoms: N_2  and  C_3 
REMARK    2  A    between atoms: N_2  and  S_32 
REMARK    3  A    between atoms: C_7  and  C_8 
REMARK    4  A    between atoms: C_8  and  N_9 
REMARK    5  A    between atoms: N_9  and  C_10 
REMARK    6  A    between atoms: C_12  and  N_13 
REMARK    7  A    between atoms: N_13  and  C_14 
REMARK    8  A    between atoms: C_26  and  C_27 
ROOT
ATOM      1  C   UNL d   1     -46.785  12.145  18.417  0.00  0.00     0.159 A 
ATOM      2  N   UNL d   1     -47.497  12.932  17.554  0.00  0.00    -0.044 NA
ATOM      3  C   UNL d   1     -48.853  12.779  17.503  0.00  0.00     0.728 A 
ATOM      4  N   UNL d   1     -49.554  11.887  18.264  0.00  0.00    -0.074 NA
ATOM      5  C   UNL d   1     -48.859  11.095  19.131  0.00  0.00     0.156 A 
ATOM      6  C   UNL d   1     -47.455  11.199  19.234  0.00  0.00     0.112 A 
ENDROOT
BRANCH   1   7
ATOM      7  N   UNL d   1     -45.424  12.298  18.470  0.00  0.00    -0.369 N 
ATOM      8  H   UNL d   1     -45.026  13.037  19.011  0.00  0.00     0.161 HD
BRANCH   7   9
ATOM      9  C   UNL d   1     -44.553  11.370  17.733  0.00  0.00     0.160 C 
BRANCH   9  10
ATOM     10  C   UNL d   1     -43.518  12.096  16.951  0.00  0.00    -0.038 A 
ATOM     11  C   UNL d   1     -42.446  12.721  17.614  0.00  0.00     0.009 A 
ATOM     12  C   UNL d   1     -41.466  13.406  16.875  0.00  0.00     0.003 A 
ATOM     13  C   UNL d   1     -41.558  13.471  15.475  0.00  0.00     0.030 A 
ATOM     14  C   UNL d   1     -42.629  12.849  14.808  0.00  0.00     0.044 A 
ATOM     15  C   UNL d   1     -43.611  12.161  15.549  0.00  0.00     0.039 A 
BRANCH  14  16
ATOM     16  N   UNL d   1     -42.718  12.912  13.443  0.00  0.00    -0.281 N 
ATOM     17  C   UNL d   1     -42.446  11.715  12.634  0.00  0.00     0.169 C 
BRANCH  16  18
ATOM     18  S   UNL d   1     -43.124  14.303  12.722  0.00  0.00     0.228 S 
ATOM     19  O   UNL d   1     -41.978  15.191  12.807  0.00  0.00    -0.206 OA
ATOM     20  O   UNL d   1     -43.507  13.991  11.355  0.00  0.00    -0.206 OA
ATOM     21  C   UNL d   1     -44.512  15.070  13.547  0.00  0.00     0.186 C 
ENDBRANCH  16  18
ENDBRANCH  14  16
ENDBRANCH   9  10
ENDBRANCH   7   9
ENDBRANCH   1   7
BRANCH   6  22
ATOM     22  C   UNL d   1     -46.722  10.322  20.189  0.00  0.00     0.422 C 
ATOM     23  F   UNL d   1     -45.972  11.094  21.037  0.00  0.00    -0.166 F 
ATOM     24  F   UNL d   1     -45.898   9.475  19.491  0.00  0.00    -0.166 F 
ATOM     25  F   UNL d   1     -47.622   9.586  20.916  0.00  0.00    -0.166 F 
ENDBRANCH   6  22
BRANCH   3  26
ATOM     26  N   UNL d   1     -49.555  13.571  16.635  0.00  0.00    -0.188 N 
ATOM     27  H   UNL d   1     -50.520  13.385  16.459  0.00  0.00     0.184 HD
BRANCH  26  28
ATOM     28  C   UNL d   1     -48.945  14.597  16.023  0.00  0.00     0.050 A 
ATOM     29  C   UNL d   1     -48.711  15.813  16.716  0.00  0.00     0.039 A 
ATOM     30  C   UNL d   1     -48.068  16.905  16.082  0.00  0.00    -0.023 A 
ATOM     31  C   UNL d   1     -47.660  16.763  14.756  0.00  0.00     0.040 A 
ATOM     32  C   UNL d   1     -47.688  18.297  16.550  0.00  0.00     0.162 A 
ATOM     33  C   UNL d   1     -47.879  15.564  14.038  0.00  0.00     0.020 A 
ATOM     34  C   UNL d   1     -47.016  17.971  14.269  0.00  0.00     0.252 A 
ATOM     35  C   UNL d   1     -48.523  14.479  14.674  0.00  0.00     0.031 A 
ATOM     36  O   UNL d   1     -46.552  18.171  13.170  0.00  0.00    -0.268 OA
ATOM     37  N   UNL d   1     -47.034  18.891  15.345  0.00  0.00    -0.353 N 
ATOM     38  H   UNL d   1     -46.656  19.817  15.306  0.00  0.00     0.163 HD
ENDBRANCH  26  28
ENDBRANCH   3  26
TORSDOF 8
ENDMDL
MODEL 6
REMARK VINA RESULT:    -9.254      3.627      6.186
REMARK INTER + INTRA:         -14.365
REMARK INTER:                 -14.144
REMARK INTRA:                  -0.220
REMARK UNBOUND:                -0.783
REMARK  8 active torsions:
REMARK  status: ('A' for Active; 'I' for Inactive)
REMARK    1  A    between atoms: N_2  and  C_3 
REMARK    2  A    between atoms: N_2  and  S_32 
REMARK    3  A    between atoms: C_7  and  C_8 
REMARK    4  A    between atoms: C_8  and  N_9 
REMARK    5  A    between atoms: N_9  and  C_10 
REMARK    6  A    between atoms: C_12  and  N_13 
REMARK    7  A    between atoms: N_13  and  C_14 
REMARK    8  A    between atoms: C_26  and  C_27 
ROOT
ATOM      1  C   UNL d   1     -45.698  12.950  17.016  0.00  0.00     0.159 A 
ATOM      2  N   UNL d   1     -44.354  12.999  16.768  0.00  0.00    -0.044 NA
ATOM      3  C   UNL d   1     -43.534  12.151  17.455  0.00  0.00     0.728 A 
ATOM      4  N   UNL d   1     -43.969  11.246  18.381  0.00  0.00    -0.074 NA
ATOM      5  C   UNL d   1     -45.307  11.183  18.640  0.00  0.00     0.156 A 
ATOM      6  C   UNL d   1     -46.212  12.032  17.967  0.00  0.00     0.112 A 
ENDROOT
BRANCH   1   7
ATOM      7  N   UNL d   1     -46.522  13.800  16.327  0.00  0.00    -0.369 N 
ATOM      8  H   UNL d   1     -47.167  13.436  15.656  0.00  0.00     0.161 HD
BRANCH   7   9
ATOM      9  C   UNL d   1     -46.459  15.248  16.578  0.00  0.00     0.160 C 
BRANCH   9  10
ATOM     10  C   UNL d   1     -47.508  15.981  15.823  0.00  0.00    -0.038 A 
ATOM     11  C   UNL d   1     -48.867  15.747  16.099  0.00  0.00     0.009 A 
ATOM     12  C   UNL d   1     -49.859  16.441  15.386  0.00  0.00     0.003 A 
ATOM     13  C   UNL d   1     -49.496  17.367  14.394  0.00  0.00     0.030 A 
ATOM     14  C   UNL d   1     -48.138  17.603  14.113  0.00  0.00     0.044 A 
ATOM     15  C   UNL d   1     -47.143  16.908  14.829  0.00  0.00     0.039 A 
BRANCH  14  16
ATOM     16  N   UNL d   1     -47.783  18.506  13.147  0.00  0.00    -0.281 N 
ATOM     17  C   UNL d   1     -47.599  18.062  11.758  0.00  0.00     0.169 C 
BRANCH  16  18
ATOM     18  S   UNL d   1     -47.571  20.063  13.535  0.00  0.00     0.228 S 
ATOM     19  O   UNL d   1     -47.921  20.217  14.936  0.00  0.00    -0.206 OA
ATOM     20  O   UNL d   1     -46.186  20.400  13.250  0.00  0.00    -0.206 OA
ATOM     21  C   UNL d   1     -48.631  21.118  12.556  0.00  0.00     0.186 C 
ENDBRANCH  16  18
ENDBRANCH  14  16
ENDBRANCH   9  10
ENDBRANCH   7   9
ENDBRANCH   1   7
BRANCH   6  22
ATOM     22  C   UNL d   1     -47.668  11.941  18.269  0.00  0.00     0.422 C 
ATOM     23  F   UNL d   1     -48.184  13.200  18.422  0.00  0.00    -0.166 F 
ATOM     24  F   UNL d   1     -47.850  11.228  19.427  0.00  0.00    -0.166 F 
ATOM     25  F   UNL d   1     -48.309  11.305  17.237  0.00  0.00    -0.166 F 
ENDBRANCH   6  22
BRANCH   3  26
ATOM     26  N   UNL d   1     -42.191  12.211  17.199  0.00  0.00    -0.188 N 
ATOM     27  H   UNL d   1     -41.550  11.703  17.773  0.00  0.00     0.184 HD
BRANCH  26  28
ATOM     28  C   UNL d   1     -41.736  12.951  16.177  0.00  0.00     0.050 A 
ATOM     29  C   UNL d   1     -42.413  12.948  14.929  0.00  0.00     0.039 A 
ATOM     30  C   UNL d   1     -41.945  13.726  13.840  0.00  0.00    -0.023 A 
ATOM     31  C   UNL d   1     -40.802  14.504  14.017  0.00  0.00     0.040 A 
ATOM     32  C   UNL d   1     -42.441  13.924  12.421  0.00  0.00     0.162 A 
ATOM     33  C   UNL d   1     -40.104  14.527  15.248  0.00  0.00     0.020 A 
ATOM     34  C   UNL d   1     -40.469  15.236  12.808  0.00  0.00     0.252 A 
ATOM     35  C   UNL d   1     -40.574  13.749  16.329  0.00  0.00     0.031 A 
ATOM     36  O   UNL d   1     -39.543  15.995  12.632  0.00  0.00    -0.268 OA
ATOM     37  N   UNL d   1     -41.452  14.887  11.850  0.00  0.00    -0.353 N 
ATOM     38  H   UNL d   1     -41.483  15.241  10.914  0.00  0.00     0.163 HD
ENDBRANCH  26  28
ENDBRANCH   3  26
TORSDOF 8
ENDMDL
MODEL 7
REMARK VINA RESULT:    -9.072      2.736      4.773
REMARK INTER + INTRA:         -14.098
REMARK INTER:                 -14.325
REMARK INTRA:                   0.227
REMARK UNBOUND:                -0.783
REMARK  8 active torsions:
REMARK  status: ('A' for Active; 'I' for Inactive)
REMARK    1  A    between atoms: N_2  and  C_3 
REMARK    2  A    between atoms: N_2  and  S_32 
REMARK    3  A    between atoms: C_7  and  C_8 
REMARK    4  A    between atoms: C_8  and  N_9 
REMARK    5  A    between atoms: N_9  and  C_10 
REMARK    6  A    between atoms: C_12  and  N_13 
REMARK    7  A    between atoms: N_13  and  C_14 
REMARK    8  A    between atoms: C_26  and  C_27 
ROOT
ATOM      1  C   UNL d   1     -46.445  14.017  14.234  0.00  0.00     0.159 A 
ATOM      2  N   UNL d   1     -47.271  13.456  15.169  0.00  0.00    -0.044 NA
ATOM      3  C   UNL d   1     -48.278  14.218  15.689  0.00  0.00     0.728 A 
ATOM      4  N   UNL d   1     -48.519  15.515  15.334  0.00  0.00    -0.074 NA
ATOM      5  C   UNL d   1     -47.705  16.090  14.403  0.00  0.00     0.156 A 
ATOM      6  C   UNL d   1     -46.643  15.360  13.825  0.00  0.00     0.112 A 
ENDROOT
BRANCH   1   7
ATOM      7  N   UNL d   1     -45.435  13.253  13.711  0.00  0.00    -0.369 N 
ATOM      8  H   UNL d   1     -45.192  13.339  12.745  0.00  0.00     0.161 HD
BRANCH   7   9
ATOM      9  C   UNL d   1     -44.708  12.309  14.572  0.00  0.00     0.160 C 
BRANCH   9  10
ATOM     10  C   UNL d   1     -43.402  12.864  15.013  0.00  0.00    -0.038 A 
ATOM     11  C   UNL d   1     -42.939  12.621  16.319  0.00  0.00     0.009 A 
ATOM     12  C   UNL d   1     -41.703  13.144  16.736  0.00  0.00     0.003 A 
ATOM     13  C   UNL d   1     -40.931  13.916  15.852  0.00  0.00     0.030 A 
ATOM     14  C   UNL d   1     -41.391  14.165  14.545  0.00  0.00     0.044 A 
ATOM     15  C   UNL d   1     -42.630  13.637  14.127  0.00  0.00     0.039 A 
BRANCH  14  16
ATOM     16  N   UNL d   1     -40.638  14.915  13.683  0.00  0.00    -0.281 N 
ATOM     17  C   UNL d   1     -39.283  15.336  14.066  0.00  0.00     0.169 C 
BRANCH  16  18
ATOM     18  S   UNL d   1     -41.240  15.337  12.241  0.00  0.00     0.228 S 
ATOM     19  O   UNL d   1     -42.097  14.254  11.791  0.00  0.00    -0.206 OA
ATOM     20  O   UNL d   1     -41.949  16.594  12.414  0.00  0.00    -0.206 OA
ATOM     21  C   UNL d   1     -39.933  15.574  11.046  0.00  0.00     0.186 C 
ENDBRANCH  16  18
ENDBRANCH  14  16
ENDBRANCH   9  10
ENDBRANCH   7   9
ENDBRANCH   1   7
BRANCH   6  22
ATOM     22  C   UNL d   1     -45.771  16.013  12.809  0.00  0.00     0.422 C 
ATOM     23  F   UNL d   1     -45.598  15.170  11.743  0.00  0.00    -0.166 F 
ATOM     24  F   UNL d   1     -44.551  16.296  13.371  0.00  0.00    -0.166 F 
ATOM     25  F   UNL d   1     -46.358  17.176  12.383  0.00  0.00    -0.166 F 
ENDBRANCH   6  22
BRANCH   3  26
ATOM     26  N   UNL d   1     -49.097  13.646  16.624  0.00  0.00    -0.188 N 
ATOM     27  H   UNL d   1     -50.056  13.917  16.679  0.00  0.00     0.184 HD
BRANCH  26  28
ATOM     28  C   UNL d   1     -48.609  12.722  17.465  0.00  0.00     0.050 A 
ATOM     29  C   UNL d   1     -47.214  12.636  17.710  0.00  0.00     0.039 A 
ATOM     30  C   UNL d   1     -46.685  11.664  18.597  0.00  0.00    -0.023 A 
ATOM     31  C   UNL d   1     -47.565  10.790  19.233  0.00  0.00     0.040 A 
ATOM     32  C   UNL d   1     -45.275  11.334  19.050  0.00  0.00     0.162 A 
ATOM     33  C   UNL d   1     -48.961  10.850  19.009  0.00  0.00     0.020 A 
ATOM     34  C   UNL d   1     -46.857   9.870  20.106  0.00  0.00     0.252 A 
ATOM     35  C   UNL d   1     -49.482  11.819  18.123  0.00  0.00     0.031 A 
ATOM     36  O   UNL d   1     -47.325   8.994  20.796  0.00  0.00    -0.268 OA
ATOM     37  N   UNL d   1     -45.483  10.196  19.995  0.00  0.00    -0.353 N 
ATOM     38  H   UNL d   1     -44.748   9.728  20.486  0.00  0.00     0.163 HD
ENDBRANCH  26  28
ENDBRANCH   3  26
TORSDOF 8
ENDMDL
MODEL 8
REMARK VINA RESULT:    -9.060      2.896      7.466
REMARK INTER + INTRA:         -14.080
REMARK INTER:                 -13.302
REMARK INTRA:                  -0.778
REMARK UNBOUND:                -0.783
REMARK  8 active torsions:
REMARK  status: ('A' for Active; 'I' for Inactive)
REMARK    1  A    between atoms: N_2  and  C_3 
REMARK    2  A    between atoms: N_2  and  S_32 
REMARK    3  A    between atoms: C_7  and  C_8 
REMARK    4  A    between atoms: C_8  and  N_9 
REMARK    5  A    between atoms: N_9  and  C_10 
REMARK    6  A    between atoms: C_12  and  N_13 
REMARK    7  A    between atoms: N_13  and  C_14 
REMARK    8  A    between atoms: C_26  and  C_27 
ROOT
ATOM      1  C   UNL d   1     -43.143  13.275  14.876  0.00  0.00     0.159 A 
ATOM      2  N   UNL d   1     -44.191  13.783  14.157  0.00  0.00    -0.044 NA
ATOM      3  C   UNL d   1     -43.927  14.706  13.187  0.00  0.00     0.728 A 
ATOM      4  N   UNL d   1     -42.676  15.160  12.880  0.00  0.00    -0.074 NA
ATOM      5  C   UNL d   1     -41.619  14.664  13.586  0.00  0.00     0.156 A 
ATOM      6  C   UNL d   1     -41.820  13.707  14.605  0.00  0.00     0.112 A 
ENDROOT
BRANCH   1   7
ATOM      7  N   UNL d   1     -43.407  12.348  15.849  0.00  0.00    -0.369 N 
ATOM      8  H   UNL d   1     -43.386  11.373  15.629  0.00  0.00     0.161 HD
BRANCH   7   9
ATOM      9  C   UNL d   1     -43.717  12.788  17.218  0.00  0.00     0.160 C 
BRANCH   9  10
ATOM     10  C   UNL d   1     -45.182  12.908  17.436  0.00  0.00    -0.038 A 
ATOM     11  C   UNL d   1     -45.876  14.029  16.947  0.00  0.00     0.009 A 
ATOM     12  C   UNL d   1     -47.262  14.143  17.152  0.00  0.00     0.003 A 
ATOM     13  C   UNL d   1     -47.955  13.139  17.850  0.00  0.00     0.030 A 
ATOM     14  C   UNL d   1     -47.264  12.017  18.344  0.00  0.00     0.044 A 
ATOM     15  C   UNL d   1     -45.874  11.903  18.136  0.00  0.00     0.039 A 
BRANCH  14  16
ATOM     16  N   UNL d   1     -47.939  11.038  19.023  0.00  0.00    -0.281 N 
ATOM     17  C   UNL d   1     -49.166  10.462  18.453  0.00  0.00     0.169 C 
BRANCH  16  18
ATOM     18  S   UNL d   1     -47.384  10.515  20.450  0.00  0.00     0.228 S 
ATOM     19  O   UNL d   1     -46.650  11.609  21.062  0.00  0.00    -0.206 OA
ATOM     20  O   UNL d   1     -48.530  10.087  21.234  0.00  0.00    -0.206 OA
ATOM     21  C   UNL d   1     -46.281   9.125  20.238  0.00  0.00     0.186 C 
ENDBRANCH  16  18
ENDBRANCH  14  16
ENDBRANCH   9  10
ENDBRANCH   7   9
ENDBRANCH   1   7
BRANCH   6  22
ATOM     22  C   UNL d   1     -40.649  13.181  15.359  0.00  0.00     0.422 C 
ATOM     23  F   UNL d   1     -40.632  11.814  15.286  0.00  0.00    -0.166 F 
ATOM     24  F   UNL d   1     -40.741  13.568  16.673  0.00  0.00    -0.166 F 
ATOM     25  F   UNL d   1     -39.493  13.683  14.816  0.00  0.00    -0.166 F 
ENDBRANCH   6  22
BRANCH   3  26
ATOM     26  N   UNL d   1     -44.983  15.209  12.476  0.00  0.00    -0.188 N 
ATOM     27  H   UNL d   1     -45.302  14.737  11.655  0.00  0.00     0.184 HD
BRANCH  26  28
ATOM     28  C   UNL d   1     -45.590  16.334  12.884  0.00  0.00     0.050 A 
ATOM     29  C   UNL d   1     -46.494  16.309  13.977  0.00  0.00     0.039 A 
ATOM     30  C   UNL d   1     -47.141  17.490  14.419  0.00  0.00    -0.023 A 
ATOM     31  C   UNL d   1     -46.870  18.688  13.760  0.00  0.00     0.040 A 
ATOM     32  C   UNL d   1     -48.134  17.772  15.531  0.00  0.00     0.162 A 
ATOM     33  C   UNL d   1     -45.975  18.745  12.666  0.00  0.00     0.020 A 
ATOM     34  C   UNL d   1     -47.611  19.792  14.344  0.00  0.00     0.252 A 
ATOM     35  C   UNL d   1     -45.334  17.565  12.228  0.00  0.00     0.031 A 
ATOM     36  O   UNL d   1     -47.598  20.954  14.007  0.00  0.00    -0.268 OA
ATOM     37  N   UNL d   1     -48.370  19.242  15.407  0.00  0.00    -0.353 N 
ATOM     38  H   UNL d   1     -48.982  19.769  15.998  0.00  0.00     0.163 HD
ENDBRANCH  26  28
ENDBRANCH   3  26
TORSDOF 8
ENDMDL
MODEL 9
REMARK VINA RESULT:    -8.908      3.815      6.235
REMARK INTER + INTRA:         -13.858
REMARK INTER:                 -12.093
REMARK INTRA:                  -1.764
REMARK UNBOUND:                -0.783
REMARK  8 active torsions:
REMARK  status: ('A' for Active; 'I' for Inactive)
REMARK    1  A    between atoms: N_2  and  C_3 
REMARK    2  A    between atoms: N_2  and  S_32 
REMARK    3  A    between atoms: C_7  and  C_8 
REMARK    4  A    between atoms: C_8  and  N_9 
REMARK    5  A    between atoms: N_9  and  C_10 
REMARK    6  A    between atoms: C_12  and  N_13 
REMARK    7  A    between atoms: N_13  and  C_14 
REMARK    8  A    between atoms: C_26  and  C_27 
ROOT
ATOM      1  C   UNL d   1     -47.343  17.739  13.207  0.00  0.00     0.159 A 
ATOM      2  N   UNL d   1     -47.704  17.274  14.443  0.00  0.00    -0.044 NA
ATOM      3  C   UNL d   1     -47.973  18.182  15.426  0.00  0.00     0.728 A 
ATOM      4  N   UNL d   1     -47.907  19.536  15.258  0.00  0.00    -0.074 NA
ATOM      5  C   UNL d   1     -47.549  20.017  14.032  0.00  0.00     0.156 A 
ATOM      6  C   UNL d   1     -47.256  19.134  12.970  0.00  0.00     0.112 A 
ENDROOT
BRANCH   1   7
ATOM      7  N   UNL d   1     -47.074  16.828  12.220  0.00  0.00    -0.369 N 
ATOM      8  H   UNL d   1     -47.775  16.603  11.544  0.00  0.00     0.161 HD
BRANCH   7   9
ATOM      9  C   UNL d   1     -45.752  16.187  12.153  0.00  0.00     0.160 C 
BRANCH   9  10
ATOM     10  C   UNL d   1     -45.687  14.976  13.012  0.00  0.00    -0.038 A 
ATOM     11  C   UNL d   1     -46.829  14.173  13.182  0.00  0.00     0.009 A 
ATOM     12  C   UNL d   1     -46.767  13.027  13.993  0.00  0.00     0.003 A 
ATOM     13  C   UNL d   1     -45.567  12.684  14.639  0.00  0.00     0.030 A 
ATOM     14  C   UNL d   1     -44.423  13.486  14.473  0.00  0.00     0.044 A 
ATOM     15  C   UNL d   1     -44.484  14.634  13.658  0.00  0.00     0.039 A 
BRANCH  14  16
ATOM     16  N   UNL d   1     -43.253  13.152  15.101  0.00  0.00    -0.281 N 
ATOM     17  C   UNL d   1     -43.222  12.995  16.562  0.00  0.00     0.169 C 
BRANCH  16  18
ATOM     18  S   UNL d   1     -41.905  12.927  14.233  0.00  0.00     0.228 S 
ATOM     19  O   UNL d   1     -41.466  14.229  13.762  0.00  0.00    -0.206 OA
ATOM     20  O   UNL d   1     -40.935  12.272  15.093  0.00  0.00    -0.206 OA
ATOM     21  C   UNL d   1     -42.221  11.878  12.820  0.00  0.00     0.186 C 
ENDBRANCH  16  18
ENDBRANCH  14  16
ENDBRANCH   9  10
ENDBRANCH   7   9
ENDBRANCH   1   7
BRANCH   6  22
ATOM     22  C   UNL d   1     -46.868  19.686  11.642  0.00  0.00     0.422 C 
ATOM     23  F   UNL d   1     -47.663  19.141  10.669  0.00  0.00    -0.166 F 
ATOM     24  F   UNL d   1     -45.555  19.380  11.386  0.00  0.00    -0.166 F 
ATOM     25  F   UNL d   1     -47.025  21.049  11.651  0.00  0.00    -0.166 F 
ENDBRANCH   6  22
BRANCH   3  26
ATOM     26  N   UNL d   1     -48.331  17.706  16.658  0.00  0.00    -0.188 N 
ATOM     27  H   UNL d   1     -48.919  18.252  17.252  0.00  0.00     0.184 HD
BRANCH  26  28
ATOM     28  C   UNL d   1     -47.893  16.505  17.064  0.00  0.00     0.050 A 
ATOM     29  C   UNL d   1     -48.687  15.345  16.871  0.00  0.00     0.039 A 
ATOM     30  C   UNL d   1     -48.236  14.070  17.295  0.00  0.00    -0.023 A 
ATOM     31  C   UNL d   1     -46.987  13.971  17.906  0.00  0.00     0.040 A 
ATOM     32  C   UNL d   1     -48.845  12.682  17.229  0.00  0.00     0.162 A 
ATOM     33  C   UNL d   1     -46.172  15.109  18.114  0.00  0.00     0.020 A 
ATOM     34  C   UNL d   1     -46.683  12.598  18.269  0.00  0.00     0.252 A 
ATOM     35  C   UNL d   1     -46.627  16.378  17.691  0.00  0.00     0.031 A 
ATOM     36  O   UNL d   1     -45.686  12.178  18.811  0.00  0.00    -0.268 OA
ATOM     37  N   UNL d   1     -47.799  11.825  17.864  0.00  0.00    -0.353 N 
ATOM     38  H   UNL d   1     -47.876  10.835  17.984  0.00  0.00     0.163 HD
ENDBRANCH  26  28
ENDBRANCH   3  26
TORSDOF 8
ENDMDL
